/*--------------------------------*- C++ -*----------------------------------*\
  =========                 |
  \\      /  F ield         | OpenFOAM: The Open Source CFD Toolbox
   \\    /   O peration     | Website:  https://openfoam.org
    \\  /    A nd           | Version:  7
     \\/     M anipulation  |
\*---------------------------------------------------------------------------*/

FoamFile
{
    version     2.0;
    format      ascii;
    location    "";
    class       vectorField;
    object      C6H14P;
}

// * * * * * * * * * * * * * * * * * * * * * * * * * * * * * * * * * * * * * //
(
(1e-05 1e-05 0.00045)
(0.00050998 1e-05 0.00045)
(0.00100996 1e-05 0.00045)
(0.00150994 1e-05 0.00045)
(0.00200992 1e-05 0.00045)
(0.0025099 1e-05 0.00045)
(0.00300988 1e-05 0.00045)
(0.00350986 1e-05 0.00045)
(0.00400984 1e-05 0.00045)
(0.00450982 1e-05 0.00045)
(0.0050098 1e-05 0.00045)
(0.00550978 1e-05 0.00045)
(0.00600976 1e-05 0.00045)
(0.00650974 1e-05 0.00045)
(0.00700972 1e-05 0.00045)
(0.0075097 1e-05 0.00045)
(0.00800968 1e-05 0.00045)
(0.00850966 1e-05 0.00045)
(0.00900964 1e-05 0.00045)
(0.00950962 1e-05 0.00045)
(0.0100096 1e-05 0.00045)
(0.01050958 1e-05 0.00045)
(0.01100956 1e-05 0.00045)
(0.01150954 1e-05 0.00045)
(0.01200952 1e-05 0.00045)
(0.0125095 1e-05 0.00045)
(0.01300948 1e-05 0.00045)
(0.01350946 1e-05 0.00045)
(0.01400944 1e-05 0.00045)
(0.01450942 1e-05 0.00045)
(0.0150094 1e-05 0.00045)
(0.01550938 1e-05 0.00045)
(0.01600936 1e-05 0.00045)
(0.01650934 1e-05 0.00045)
(0.01700932 1e-05 0.00045)
(0.0175093 1e-05 0.00045)
(0.01800928 1e-05 0.00045)
(0.01850926 1e-05 0.00045)
(0.01900924 1e-05 0.00045)
(0.01950922 1e-05 0.00045)
(0.0200092 1e-05 0.00045)
(0.02050918 1e-05 0.00045)
(0.02100916 1e-05 0.00045)
(0.02150914 1e-05 0.00045)
(0.02200912 1e-05 0.00045)
(0.0225091 1e-05 0.00045)
(0.02300908 1e-05 0.00045)
(0.02350906 1e-05 0.00045)
(0.02400904 1e-05 0.00045)
(0.02450902 1e-05 0.00045)
(0.025009 1e-05 0.00045)
(0.02550898 1e-05 0.00045)
(0.02600896 1e-05 0.00045)
(0.02650894 1e-05 0.00045)
(0.02700892 1e-05 0.00045)
(0.0275089 1e-05 0.00045)
(0.02800888 1e-05 0.00045)
(0.02850886 1e-05 0.00045)
(0.02900884 1e-05 0.00045)
(0.02950882 1e-05 0.00045)
(0.0300088 1e-05 0.00045)
(0.03050878 1e-05 0.00045)
(0.03100876 1e-05 0.00045)
(0.03150874 1e-05 0.00045)
(0.03200872 1e-05 0.00045)
(0.0325087 1e-05 0.00045)
(0.03300868 1e-05 0.00045)
(0.03350866 1e-05 0.00045)
(0.03400864 1e-05 0.00045)
(0.03450862 1e-05 0.00045)
(0.0350086 1e-05 0.00045)
(0.03550858 1e-05 0.00045)
(0.03600856 1e-05 0.00045)
(0.03650854 1e-05 0.00045)
(0.03700852 1e-05 0.00045)
(0.0375085 1e-05 0.00045)
(0.03800848 1e-05 0.00045)
(0.03850846 1e-05 0.00045)
(0.03900844 1e-05 0.00045)
(0.03950842 1e-05 0.00045)
(0.0400084 1e-05 0.00045)
(0.04050838 1e-05 0.00045)
(0.04100836 1e-05 0.00045)
(0.04150834 1e-05 0.00045)
(0.04200832 1e-05 0.00045)
(0.0425083 1e-05 0.00045)
(0.04300828 1e-05 0.00045)
(0.04350826 1e-05 0.00045)
(0.04400824 1e-05 0.00045)
(0.04450822 1e-05 0.00045)
(0.0450082 1e-05 0.00045)
(0.04550818 1e-05 0.00045)
(0.04600816 1e-05 0.00045)
(0.04650814 1e-05 0.00045)
(0.04700812 1e-05 0.00045)
(0.0475081 1e-05 0.00045)
(0.04800808 1e-05 0.00045)
(0.04850806 1e-05 0.00045)
(0.04900804 1e-05 0.00045)
(0.04950802 1e-05 0.00045)
(0.050008 1e-05 0.00045)
(0.05050798 1e-05 0.00045)
(0.05100796 1e-05 0.00045)
(0.05150794 1e-05 0.00045)
(0.05200792 1e-05 0.00045)
(0.0525079 1e-05 0.00045)
(0.05300788 1e-05 0.00045)
(0.05350786 1e-05 0.00045)
(0.05400784 1e-05 0.00045)
(0.05450782 1e-05 0.00045)
(0.0550078 1e-05 0.00045)
(0.05550778 1e-05 0.00045)
(0.05600776 1e-05 0.00045)
(0.05650774 1e-05 0.00045)
(0.05700772 1e-05 0.00045)
(0.0575077 1e-05 0.00045)
(0.05800768 1e-05 0.00045)
(0.05850766 1e-05 0.00045)
(0.05900764 1e-05 0.00045)
(0.05950762 1e-05 0.00045)
(0.0600076 1e-05 0.00045)
(0.06050758 1e-05 0.00045)
(0.06100756 1e-05 0.00045)
(0.06150754 1e-05 0.00045)
(0.06200752 1e-05 0.00045)
(0.0625075 1e-05 0.00045)
(0.06300748 1e-05 0.00045)
(0.06350746 1e-05 0.00045)
(0.06400744 1e-05 0.00045)
(0.06450742 1e-05 0.00045)
(0.0650074 1e-05 0.00045)
(0.06550738 1e-05 0.00045)
(0.06600736 1e-05 0.00045)
(0.06650734 1e-05 0.00045)
(0.06700732 1e-05 0.00045)
(0.0675073 1e-05 0.00045)
(0.06800728 1e-05 0.00045)
(0.06850726 1e-05 0.00045)
(0.06900724 1e-05 0.00045)
(0.06950722 1e-05 0.00045)
(0.0700072 1e-05 0.00045)
(0.07050718 1e-05 0.00045)
(0.07100716 1e-05 0.00045)
(0.07150714 1e-05 0.00045)
(0.07200712 1e-05 0.00045)
(0.0725071 1e-05 0.00045)
(0.07300708 1e-05 0.00045)
(0.07350706 1e-05 0.00045)
(0.07400704 1e-05 0.00045)
(0.07450702 1e-05 0.00045)
(0.075007 1e-05 0.00045)
(0.07550698 1e-05 0.00045)
(0.07600696 1e-05 0.00045)
(0.07650694 1e-05 0.00045)
(0.07700692 1e-05 0.00045)
(0.0775069 1e-05 0.00045)
(0.07800688 1e-05 0.00045)
(0.07850686 1e-05 0.00045)
(0.07900684 1e-05 0.00045)
(0.07950682 1e-05 0.00045)
(0.0800068 1e-05 0.00045)
(0.08050678 1e-05 0.00045)
(0.08100676 1e-05 0.00045)
(0.08150674 1e-05 0.00045)
(0.08200672 1e-05 0.00045)
(0.0825067 1e-05 0.00045)
(0.08300668 1e-05 0.00045)
(0.08350666 1e-05 0.00045)
(0.08400664 1e-05 0.00045)
(0.08450662 1e-05 0.00045)
(0.0850066 1e-05 0.00045)
(0.08550658 1e-05 0.00045)
(0.08600656 1e-05 0.00045)
(0.08650654 1e-05 0.00045)
(0.08700652 1e-05 0.00045)
(0.0875065 1e-05 0.00045)
(0.08800648 1e-05 0.00045)
(0.08850646 1e-05 0.00045)
(0.08900644 1e-05 0.00045)
(0.08950642 1e-05 0.00045)
(0.0900064 1e-05 0.00045)
(0.09050638 1e-05 0.00045)
(0.09100636 1e-05 0.00045)
(0.09150634 1e-05 0.00045)
(0.09200632 1e-05 0.00045)
(0.0925063 1e-05 0.00045)
(0.09300628 1e-05 0.00045)
(0.09350626 1e-05 0.00045)
(0.09400624 1e-05 0.00045)
(0.09450622 1e-05 0.00045)
(0.0950062 1e-05 0.00045)
(0.09550618 1e-05 0.00045)
(0.09600616 1e-05 0.00045)
(0.09650614 1e-05 0.00045)
(0.09700612 1e-05 0.00045)
(0.0975061 1e-05 0.00045)
(0.09800608 1e-05 0.00045)
(0.09850606 1e-05 0.00045)
(0.09900604 1e-05 0.00045)
(0.09950602 1e-05 0.00045)
(0.100006 1e-05 0.00045)
(0.10050598 1e-05 0.00045)
(0.10100596 1e-05 0.00045)
(0.10150594 1e-05 0.00045)
(0.10200592 1e-05 0.00045)
(0.1025059 1e-05 0.00045)
(0.10300588 1e-05 0.00045)
(0.10350586 1e-05 0.00045)
(0.10400584 1e-05 0.00045)
(0.10450582 1e-05 0.00045)
(0.1050058 1e-05 0.00045)
(0.10550578 1e-05 0.00045)
(0.10600576 1e-05 0.00045)
(0.10650574 1e-05 0.00045)
(0.10700572 1e-05 0.00045)
(0.1075057 1e-05 0.00045)
(0.10800568 1e-05 0.00045)
(0.10850566 1e-05 0.00045)
(0.10900564 1e-05 0.00045)
(0.10950562 1e-05 0.00045)
(0.1100056 1e-05 0.00045)
(0.11050558 1e-05 0.00045)
(0.11100556 1e-05 0.00045)
(0.11150554 1e-05 0.00045)
(0.11200552 1e-05 0.00045)
(0.1125055 1e-05 0.00045)
(0.11300548 1e-05 0.00045)
(0.11350546 1e-05 0.00045)
(0.11400544 1e-05 0.00045)
(0.11450542 1e-05 0.00045)
(0.1150054 1e-05 0.00045)
(0.11550538 1e-05 0.00045)
(0.11600536 1e-05 0.00045)
(0.11650534 1e-05 0.00045)
(0.11700532 1e-05 0.00045)
(0.1175053 1e-05 0.00045)
(0.11800528 1e-05 0.00045)
(0.11850526 1e-05 0.00045)
(0.11900524 1e-05 0.00045)
(0.11950522 1e-05 0.00045)
(0.1200052 1e-05 0.00045)
(0.12050518 1e-05 0.00045)
(0.12100516 1e-05 0.00045)
(0.12150514 1e-05 0.00045)
(0.12200512 1e-05 0.00045)
(0.1225051 1e-05 0.00045)
(0.12300508 1e-05 0.00045)
(0.12350506 1e-05 0.00045)
(0.12400504 1e-05 0.00045)
(0.12450502 1e-05 0.00045)
(0.125005 1e-05 0.00045)
(0.12550498 1e-05 0.00045)
(0.12600496 1e-05 0.00045)
(0.12650494 1e-05 0.00045)
(0.12700492 1e-05 0.00045)
(0.1275049 1e-05 0.00045)
(0.12800488 1e-05 0.00045)
(0.12850486 1e-05 0.00045)
(0.12900484 1e-05 0.00045)
(0.12950482 1e-05 0.00045)
(0.1300048 1e-05 0.00045)
(0.13050478 1e-05 0.00045)
(0.13100476 1e-05 0.00045)
(0.13150474 1e-05 0.00045)
(0.13200472 1e-05 0.00045)
(0.1325047 1e-05 0.00045)
(0.13300468 1e-05 0.00045)
(0.13350466 1e-05 0.00045)
(0.13400464 1e-05 0.00045)
(0.13450462 1e-05 0.00045)
(0.1350046 1e-05 0.00045)
(0.13550458 1e-05 0.00045)
(0.13600456 1e-05 0.00045)
(0.13650454 1e-05 0.00045)
(0.13700452 1e-05 0.00045)
(0.1375045 1e-05 0.00045)
(0.13800448 1e-05 0.00045)
(0.13850446 1e-05 0.00045)
(0.13900444 1e-05 0.00045)
(0.13950442 1e-05 0.00045)
(0.1400044 1e-05 0.00045)
(0.14050438 1e-05 0.00045)
(0.14100436 1e-05 0.00045)
(0.14150434 1e-05 0.00045)
(0.14200432 1e-05 0.00045)
(0.1425043 1e-05 0.00045)
(0.14300428 1e-05 0.00045)
(0.14350426 1e-05 0.00045)
(0.14400424 1e-05 0.00045)
(0.14450422 1e-05 0.00045)
(0.1450042 1e-05 0.00045)
(0.14550418 1e-05 0.00045)
(0.14600416 1e-05 0.00045)
(0.14650414 1e-05 0.00045)
(0.14700412 1e-05 0.00045)
(0.1475041 1e-05 0.00045)
(0.14800408 1e-05 0.00045)
(0.14850406 1e-05 0.00045)
(0.14900404 1e-05 0.00045)
(0.14950402 1e-05 0.00045)
(0.150004 1e-05 0.00045)
(0.15050398 1e-05 0.00045)
(0.15100396 1e-05 0.00045)
(0.15150394 1e-05 0.00045)
(0.15200392 1e-05 0.00045)
(0.1525039 1e-05 0.00045)
(0.15300388 1e-05 0.00045)
(0.15350386 1e-05 0.00045)
(0.15400384 1e-05 0.00045)
(0.15450382 1e-05 0.00045)
(0.1550038 1e-05 0.00045)
(0.15550378 1e-05 0.00045)
(0.15600376 1e-05 0.00045)
(0.15650374 1e-05 0.00045)
(0.15700372 1e-05 0.00045)
(0.1575037 1e-05 0.00045)
(0.15800368 1e-05 0.00045)
(0.15850366 1e-05 0.00045)
(0.15900364 1e-05 0.00045)
(0.15950362 1e-05 0.00045)
(0.1600036 1e-05 0.00045)
(0.16050358 1e-05 0.00045)
(0.16100356 1e-05 0.00045)
(0.16150354 1e-05 0.00045)
(0.16200352 1e-05 0.00045)
(0.1625035 1e-05 0.00045)
(0.16300348 1e-05 0.00045)
(0.16350346 1e-05 0.00045)
(0.16400344 1e-05 0.00045)
(0.16450342 1e-05 0.00045)
(0.1650034 1e-05 0.00045)
(0.16550338 1e-05 0.00045)
(0.16600336 1e-05 0.00045)
(0.16650334 1e-05 0.00045)
(0.16700332 1e-05 0.00045)
(0.1675033 1e-05 0.00045)
(0.16800328 1e-05 0.00045)
(0.16850326 1e-05 0.00045)
(0.16900324 1e-05 0.00045)
(0.16950322 1e-05 0.00045)
(0.1700032 1e-05 0.00045)
(0.17050318 1e-05 0.00045)
(0.17100316 1e-05 0.00045)
(0.17150314 1e-05 0.00045)
(0.17200312 1e-05 0.00045)
(0.1725031 1e-05 0.00045)
(0.17300308 1e-05 0.00045)
(0.17350306 1e-05 0.00045)
(0.17400304 1e-05 0.00045)
(0.17450302 1e-05 0.00045)
(0.175003 1e-05 0.00045)
(0.17550298 1e-05 0.00045)
(0.17600296 1e-05 0.00045)
(0.17650294 1e-05 0.00045)
(0.17700292 1e-05 0.00045)
(0.1775029 1e-05 0.00045)
(0.17800288 1e-05 0.00045)
(0.17850286 1e-05 0.00045)
(0.17900284 1e-05 0.00045)
(0.17950282 1e-05 0.00045)
(0.1800028 1e-05 0.00045)
(0.18050278 1e-05 0.00045)
(0.18100276 1e-05 0.00045)
(0.18150274 1e-05 0.00045)
(0.18200272 1e-05 0.00045)
(0.1825027 1e-05 0.00045)
(0.18300268 1e-05 0.00045)
(0.18350266 1e-05 0.00045)
(0.18400264 1e-05 0.00045)
(0.18450262 1e-05 0.00045)
(0.1850026 1e-05 0.00045)
(0.18550258 1e-05 0.00045)
(0.18600256 1e-05 0.00045)
(0.18650254 1e-05 0.00045)
(0.18700252 1e-05 0.00045)
(0.1875025 1e-05 0.00045)
(0.18800248 1e-05 0.00045)
(0.18850246 1e-05 0.00045)
(0.18900244 1e-05 0.00045)
(0.18950242 1e-05 0.00045)
(0.1900024 1e-05 0.00045)
(0.19050238 1e-05 0.00045)
(0.19100236 1e-05 0.00045)
(0.19150234 1e-05 0.00045)
(0.19200232 1e-05 0.00045)
(0.1925023 1e-05 0.00045)
(0.19300228 1e-05 0.00045)
(0.19350226 1e-05 0.00045)
(0.19400224 1e-05 0.00045)
(0.19450222 1e-05 0.00045)
(0.1950022 1e-05 0.00045)
(0.19550218 1e-05 0.00045)
(0.19600216 1e-05 0.00045)
(0.19650214 1e-05 0.00045)
(0.19700212 1e-05 0.00045)
(0.1975021 1e-05 0.00045)
(0.19800208 1e-05 0.00045)
(0.19850206 1e-05 0.00045)
(0.19900204 1e-05 0.00045)
(0.19950202 1e-05 0.00045)
(0.200002 1e-05 0.00045)
(0.20050198 1e-05 0.00045)
(0.20100196 1e-05 0.00045)
(0.20150194 1e-05 0.00045)
(0.20200192 1e-05 0.00045)
(0.2025019 1e-05 0.00045)
(0.20300188 1e-05 0.00045)
(0.20350186 1e-05 0.00045)
(0.20400184 1e-05 0.00045)
(0.20450182 1e-05 0.00045)
(0.2050018 1e-05 0.00045)
(0.20550178 1e-05 0.00045)
(0.20600176 1e-05 0.00045)
(0.20650174 1e-05 0.00045)
(0.20700172 1e-05 0.00045)
(0.2075017 1e-05 0.00045)
(0.20800168 1e-05 0.00045)
(0.20850166 1e-05 0.00045)
(0.20900164 1e-05 0.00045)
(0.20950162 1e-05 0.00045)
(0.2100016 1e-05 0.00045)
(0.21050158 1e-05 0.00045)
(0.21100156 1e-05 0.00045)
(0.21150154 1e-05 0.00045)
(0.21200152 1e-05 0.00045)
(0.2125015 1e-05 0.00045)
(0.21300148 1e-05 0.00045)
(0.21350146 1e-05 0.00045)
(0.21400144 1e-05 0.00045)
(0.21450142 1e-05 0.00045)
(0.2150014 1e-05 0.00045)
(0.21550138 1e-05 0.00045)
(0.21600136 1e-05 0.00045)
(0.21650134 1e-05 0.00045)
(0.21700132 1e-05 0.00045)
(0.2175013 1e-05 0.00045)
(0.21800128 1e-05 0.00045)
(0.21850126 1e-05 0.00045)
(0.21900124 1e-05 0.00045)
(0.21950122 1e-05 0.00045)
(0.2200012 1e-05 0.00045)
(0.22050118 1e-05 0.00045)
(0.22100116 1e-05 0.00045)
(0.22150114 1e-05 0.00045)
(0.22200112 1e-05 0.00045)
(0.2225011 1e-05 0.00045)
(0.22300108 1e-05 0.00045)
(0.22350106 1e-05 0.00045)
(0.22400104 1e-05 0.00045)
(0.22450102 1e-05 0.00045)
(0.225001 1e-05 0.00045)
(0.22550098 1e-05 0.00045)
(0.22600096 1e-05 0.00045)
(0.22650094 1e-05 0.00045)
(0.22700092 1e-05 0.00045)
(0.2275009 1e-05 0.00045)
(0.22800088 1e-05 0.00045)
(0.22850086 1e-05 0.00045)
(0.22900084 1e-05 0.00045)
(0.22950082 1e-05 0.00045)
(0.2300008 1e-05 0.00045)
(0.23050078 1e-05 0.00045)
(0.23100076 1e-05 0.00045)
(0.23150074 1e-05 0.00045)
(0.23200072 1e-05 0.00045)
(0.2325007 1e-05 0.00045)
(0.23300068 1e-05 0.00045)
(0.23350066 1e-05 0.00045)
(0.23400064 1e-05 0.00045)
(0.23450062 1e-05 0.00045)
(0.2350006 1e-05 0.00045)
(0.23550058 1e-05 0.00045)
(0.23600056 1e-05 0.00045)
(0.23650054 1e-05 0.00045)
(0.23700052 1e-05 0.00045)
(0.2375005 1e-05 0.00045)
(0.23800048 1e-05 0.00045)
(0.23850046 1e-05 0.00045)
(0.23900044 1e-05 0.00045)
(0.23950042 1e-05 0.00045)
(0.2400004 1e-05 0.00045)
(0.24050038 1e-05 0.00045)
(0.24100036 1e-05 0.00045)
(0.24150034 1e-05 0.00045)
(0.24200032 1e-05 0.00045)
(0.2425003 1e-05 0.00045)
(0.24300028 1e-05 0.00045)
(0.24350026 1e-05 0.00045)
(0.24400024 1e-05 0.00045)
(0.24450022 1e-05 0.00045)
(0.2450002 1e-05 0.00045)
(0.24550018 1e-05 0.00045)
(0.24600016 1e-05 0.00045)
(0.24650014 1e-05 0.00045)
(0.24700012 1e-05 0.00045)
(0.2475001 1e-05 0.00045)
(0.24800008 1e-05 0.00045)
(0.24850006 1e-05 0.00045)
(0.24900004 1e-05 0.00045)
(0.24950002 1e-05 0.00045)
(0.25 1e-05 0.00045)
(0.25049998 1e-05 0.00045)
(0.25099996 1e-05 0.00045)
(0.25149994 1e-05 0.00045)
(0.25199992 1e-05 0.00045)
(0.2524999 1e-05 0.00045)
(0.25299988 1e-05 0.00045)
(0.25349986 1e-05 0.00045)
(0.25399984 1e-05 0.00045)
(0.25449982 1e-05 0.00045)
(0.2549998 1e-05 0.00045)
(0.25549978 1e-05 0.00045)
(0.25599976 1e-05 0.00045)
(0.25649974 1e-05 0.00045)
(0.25699972 1e-05 0.00045)
(0.2574997 1e-05 0.00045)
(0.25799968 1e-05 0.00045)
(0.25849966 1e-05 0.00045)
(0.25899964 1e-05 0.00045)
(0.25949962 1e-05 0.00045)
(0.2599996 1e-05 0.00045)
(0.26049958 1e-05 0.00045)
(0.26099956 1e-05 0.00045)
(0.26149954 1e-05 0.00045)
(0.26199952 1e-05 0.00045)
(0.2624995 1e-05 0.00045)
(0.26299948 1e-05 0.00045)
(0.26349946 1e-05 0.00045)
(0.26399944 1e-05 0.00045)
(0.26449942 1e-05 0.00045)
(0.2649994 1e-05 0.00045)
(0.26549938 1e-05 0.00045)
(0.26599936 1e-05 0.00045)
(0.26649934 1e-05 0.00045)
(0.26699932 1e-05 0.00045)
(0.2674993 1e-05 0.00045)
(0.26799928 1e-05 0.00045)
(0.26849926 1e-05 0.00045)
(0.26899924 1e-05 0.00045)
(0.26949922 1e-05 0.00045)
(0.2699992 1e-05 0.00045)
(0.27049918 1e-05 0.00045)
(0.27099916 1e-05 0.00045)
(0.27149914 1e-05 0.00045)
(0.27199912 1e-05 0.00045)
(0.2724991 1e-05 0.00045)
(0.27299908 1e-05 0.00045)
(0.27349906 1e-05 0.00045)
(0.27399904 1e-05 0.00045)
(0.27449902 1e-05 0.00045)
(0.274999 1e-05 0.00045)
(0.27549898 1e-05 0.00045)
(0.27599896 1e-05 0.00045)
(0.27649894 1e-05 0.00045)
(0.27699892 1e-05 0.00045)
(0.2774989 1e-05 0.00045)
(0.27799888 1e-05 0.00045)
(0.27849886 1e-05 0.00045)
(0.27899884 1e-05 0.00045)
(0.27949882 1e-05 0.00045)
(0.2799988 1e-05 0.00045)
(0.28049878 1e-05 0.00045)
(0.28099876 1e-05 0.00045)
(0.28149874 1e-05 0.00045)
(0.28199872 1e-05 0.00045)
(0.2824987 1e-05 0.00045)
(0.28299868 1e-05 0.00045)
(0.28349866 1e-05 0.00045)
(0.28399864 1e-05 0.00045)
(0.28449862 1e-05 0.00045)
(0.2849986 1e-05 0.00045)
(0.28549858 1e-05 0.00045)
(0.28599856 1e-05 0.00045)
(0.28649854 1e-05 0.00045)
(0.28699852 1e-05 0.00045)
(0.2874985 1e-05 0.00045)
(0.28799848 1e-05 0.00045)
(0.28849846 1e-05 0.00045)
(0.28899844 1e-05 0.00045)
(0.28949842 1e-05 0.00045)
(0.2899984 1e-05 0.00045)
(0.29049838 1e-05 0.00045)
(0.29099836 1e-05 0.00045)
(0.29149834 1e-05 0.00045)
(0.29199832 1e-05 0.00045)
(0.2924983 1e-05 0.00045)
(0.29299828 1e-05 0.00045)
(0.29349826 1e-05 0.00045)
(0.29399824 1e-05 0.00045)
(0.29449822 1e-05 0.00045)
(0.2949982 1e-05 0.00045)
(0.29549818 1e-05 0.00045)
(0.29599816 1e-05 0.00045)
(0.29649814 1e-05 0.00045)
(0.29699812 1e-05 0.00045)
(0.2974981 1e-05 0.00045)
(0.29799808 1e-05 0.00045)
(0.29849806 1e-05 0.00045)
(0.29899804 1e-05 0.00045)
(0.29949802 1e-05 0.00045)
(0.299998 1e-05 0.00045)
(0.30049798 1e-05 0.00045)
(0.30099796 1e-05 0.00045)
(0.30149794 1e-05 0.00045)
(0.30199792 1e-05 0.00045)
(0.3024979 1e-05 0.00045)
(0.30299788 1e-05 0.00045)
(0.30349786 1e-05 0.00045)
(0.30399784 1e-05 0.00045)
(0.30449782 1e-05 0.00045)
(0.3049978 1e-05 0.00045)
(0.30549778 1e-05 0.00045)
(0.30599776 1e-05 0.00045)
(0.30649774 1e-05 0.00045)
(0.30699772 1e-05 0.00045)
(0.3074977 1e-05 0.00045)
(0.30799768 1e-05 0.00045)
(0.30849766 1e-05 0.00045)
(0.30899764 1e-05 0.00045)
(0.30949762 1e-05 0.00045)
(0.3099976 1e-05 0.00045)
(0.31049758 1e-05 0.00045)
(0.31099756 1e-05 0.00045)
(0.31149754 1e-05 0.00045)
(0.31199752 1e-05 0.00045)
(0.3124975 1e-05 0.00045)
(0.31299748 1e-05 0.00045)
(0.31349746 1e-05 0.00045)
(0.31399744 1e-05 0.00045)
(0.31449742 1e-05 0.00045)
(0.3149974 1e-05 0.00045)
(0.31549738 1e-05 0.00045)
(0.31599736 1e-05 0.00045)
(0.31649734 1e-05 0.00045)
(0.31699732 1e-05 0.00045)
(0.3174973 1e-05 0.00045)
(0.31799728 1e-05 0.00045)
(0.31849726 1e-05 0.00045)
(0.31899724 1e-05 0.00045)
(0.31949722 1e-05 0.00045)
(0.3199972 1e-05 0.00045)
(0.32049718 1e-05 0.00045)
(0.32099716 1e-05 0.00045)
(0.32149714 1e-05 0.00045)
(0.32199712 1e-05 0.00045)
(0.3224971 1e-05 0.00045)
(0.32299708 1e-05 0.00045)
(0.32349706 1e-05 0.00045)
(0.32399704 1e-05 0.00045)
(0.32449702 1e-05 0.00045)
(0.324997 1e-05 0.00045)
(0.32549698 1e-05 0.00045)
(0.32599696 1e-05 0.00045)
(0.32649694 1e-05 0.00045)
(0.32699692 1e-05 0.00045)
(0.3274969 1e-05 0.00045)
(0.32799688 1e-05 0.00045)
(0.32849686 1e-05 0.00045)
(0.32899684 1e-05 0.00045)
(0.32949682 1e-05 0.00045)
(0.3299968 1e-05 0.00045)
(0.33049678 1e-05 0.00045)
(0.33099676 1e-05 0.00045)
(0.33149674 1e-05 0.00045)
(0.33199672 1e-05 0.00045)
(0.3324967 1e-05 0.00045)
(0.33299668 1e-05 0.00045)
(0.33349666 1e-05 0.00045)
(0.33399664 1e-05 0.00045)
(0.33449662 1e-05 0.00045)
(0.3349966 1e-05 0.00045)
(0.33549658 1e-05 0.00045)
(0.33599656 1e-05 0.00045)
(0.33649654 1e-05 0.00045)
(0.33699652 1e-05 0.00045)
(0.3374965 1e-05 0.00045)
(0.33799648 1e-05 0.00045)
(0.33849646 1e-05 0.00045)
(0.33899644 1e-05 0.00045)
(0.33949642 1e-05 0.00045)
(0.3399964 1e-05 0.00045)
(0.34049638 1e-05 0.00045)
(0.34099636 1e-05 0.00045)
(0.34149634 1e-05 0.00045)
(0.34199632 1e-05 0.00045)
(0.3424963 1e-05 0.00045)
(0.34299628 1e-05 0.00045)
(0.34349626 1e-05 0.00045)
(0.34399624 1e-05 0.00045)
(0.34449622 1e-05 0.00045)
(0.3449962 1e-05 0.00045)
(0.34549618 1e-05 0.00045)
(0.34599616 1e-05 0.00045)
(0.34649614 1e-05 0.00045)
(0.34699612 1e-05 0.00045)
(0.3474961 1e-05 0.00045)
(0.34799608 1e-05 0.00045)
(0.34849606 1e-05 0.00045)
(0.34899604 1e-05 0.00045)
(0.34949602 1e-05 0.00045)
(0.349996 1e-05 0.00045)
(0.35049598 1e-05 0.00045)
(0.35099596 1e-05 0.00045)
(0.35149594 1e-05 0.00045)
(0.35199592 1e-05 0.00045)
(0.3524959 1e-05 0.00045)
(0.35299588 1e-05 0.00045)
(0.35349586 1e-05 0.00045)
(0.35399584 1e-05 0.00045)
(0.35449582 1e-05 0.00045)
(0.3549958 1e-05 0.00045)
(0.35549578 1e-05 0.00045)
(0.35599576 1e-05 0.00045)
(0.35649574 1e-05 0.00045)
(0.35699572 1e-05 0.00045)
(0.3574957 1e-05 0.00045)
(0.35799568 1e-05 0.00045)
(0.35849566 1e-05 0.00045)
(0.35899564 1e-05 0.00045)
(0.35949562 1e-05 0.00045)
(0.3599956 1e-05 0.00045)
(0.36049558 1e-05 0.00045)
(0.36099556 1e-05 0.00045)
(0.36149554 1e-05 0.00045)
(0.36199552 1e-05 0.00045)
(0.3624955 1e-05 0.00045)
(0.36299548 1e-05 0.00045)
(0.36349546 1e-05 0.00045)
(0.36399544 1e-05 0.00045)
(0.36449542 1e-05 0.00045)
(0.3649954 1e-05 0.00045)
(0.36549538 1e-05 0.00045)
(0.36599536 1e-05 0.00045)
(0.36649534 1e-05 0.00045)
(0.36699532 1e-05 0.00045)
(0.3674953 1e-05 0.00045)
(0.36799528 1e-05 0.00045)
(0.36849526 1e-05 0.00045)
(0.36899524 1e-05 0.00045)
(0.36949522 1e-05 0.00045)
(0.3699952 1e-05 0.00045)
(0.37049518 1e-05 0.00045)
(0.37099516 1e-05 0.00045)
(0.37149514 1e-05 0.00045)
(0.37199512 1e-05 0.00045)
(0.3724951 1e-05 0.00045)
(0.37299508 1e-05 0.00045)
(0.37349506 1e-05 0.00045)
(0.37399504 1e-05 0.00045)
(0.37449502 1e-05 0.00045)
(0.374995 1e-05 0.00045)
(0.37549498 1e-05 0.00045)
(0.37599496 1e-05 0.00045)
(0.37649494 1e-05 0.00045)
(0.37699492 1e-05 0.00045)
(0.3774949 1e-05 0.00045)
(0.37799488 1e-05 0.00045)
(0.37849486 1e-05 0.00045)
(0.37899484 1e-05 0.00045)
(0.37949482 1e-05 0.00045)
(0.3799948 1e-05 0.00045)
(0.38049478 1e-05 0.00045)
(0.38099476 1e-05 0.00045)
(0.38149474 1e-05 0.00045)
(0.38199472 1e-05 0.00045)
(0.3824947 1e-05 0.00045)
(0.38299468 1e-05 0.00045)
(0.38349466 1e-05 0.00045)
(0.38399464 1e-05 0.00045)
(0.38449462 1e-05 0.00045)
(0.3849946 1e-05 0.00045)
(0.38549458 1e-05 0.00045)
(0.38599456 1e-05 0.00045)
(0.38649454 1e-05 0.00045)
(0.38699452 1e-05 0.00045)
(0.3874945 1e-05 0.00045)
(0.38799448 1e-05 0.00045)
(0.38849446 1e-05 0.00045)
(0.38899444 1e-05 0.00045)
(0.38949442 1e-05 0.00045)
(0.3899944 1e-05 0.00045)
(0.39049438 1e-05 0.00045)
(0.39099436 1e-05 0.00045)
(0.39149434 1e-05 0.00045)
(0.39199432 1e-05 0.00045)
(0.3924943 1e-05 0.00045)
(0.39299428 1e-05 0.00045)
(0.39349426 1e-05 0.00045)
(0.39399424 1e-05 0.00045)
(0.39449422 1e-05 0.00045)
(0.3949942 1e-05 0.00045)
(0.39549418 1e-05 0.00045)
(0.39599416 1e-05 0.00045)
(0.39649414 1e-05 0.00045)
(0.39699412 1e-05 0.00045)
(0.3974941 1e-05 0.00045)
(0.39799408 1e-05 0.00045)
(0.39849406 1e-05 0.00045)
(0.39899404 1e-05 0.00045)
(0.39949402 1e-05 0.00045)
(0.399994 1e-05 0.00045)
(0.40049398 1e-05 0.00045)
(0.40099396 1e-05 0.00045)
(0.40149394 1e-05 0.00045)
(0.40199392 1e-05 0.00045)
(0.4024939 1e-05 0.00045)
(0.40299388 1e-05 0.00045)
(0.40349386 1e-05 0.00045)
(0.40399384 1e-05 0.00045)
(0.40449382 1e-05 0.00045)
(0.4049938 1e-05 0.00045)
(0.40549378 1e-05 0.00045)
(0.40599376 1e-05 0.00045)
(0.40649374 1e-05 0.00045)
(0.40699372 1e-05 0.00045)
(0.4074937 1e-05 0.00045)
(0.40799368 1e-05 0.00045)
(0.40849366 1e-05 0.00045)
(0.40899364 1e-05 0.00045)
(0.40949362 1e-05 0.00045)
(0.4099936 1e-05 0.00045)
(0.41049358 1e-05 0.00045)
(0.41099356 1e-05 0.00045)
(0.41149354 1e-05 0.00045)
(0.41199352 1e-05 0.00045)
(0.4124935 1e-05 0.00045)
(0.41299348 1e-05 0.00045)
(0.41349346 1e-05 0.00045)
(0.41399344 1e-05 0.00045)
(0.41449342 1e-05 0.00045)
(0.4149934 1e-05 0.00045)
(0.41549338 1e-05 0.00045)
(0.41599336 1e-05 0.00045)
(0.41649334 1e-05 0.00045)
(0.41699332 1e-05 0.00045)
(0.4174933 1e-05 0.00045)
(0.41799328 1e-05 0.00045)
(0.41849326 1e-05 0.00045)
(0.41899324 1e-05 0.00045)
(0.41949322 1e-05 0.00045)
(0.4199932 1e-05 0.00045)
(0.42049318 1e-05 0.00045)
(0.42099316 1e-05 0.00045)
(0.42149314 1e-05 0.00045)
(0.42199312 1e-05 0.00045)
(0.4224931 1e-05 0.00045)
(0.42299308 1e-05 0.00045)
(0.42349306 1e-05 0.00045)
(0.42399304 1e-05 0.00045)
(0.42449302 1e-05 0.00045)
(0.424993 1e-05 0.00045)
(0.42549298 1e-05 0.00045)
(0.42599296 1e-05 0.00045)
(0.42649294 1e-05 0.00045)
(0.42699292 1e-05 0.00045)
(0.4274929 1e-05 0.00045)
(0.42799288 1e-05 0.00045)
(0.42849286 1e-05 0.00045)
(0.42899284 1e-05 0.00045)
(0.42949282 1e-05 0.00045)
(0.4299928 1e-05 0.00045)
(0.43049278 1e-05 0.00045)
(0.43099276 1e-05 0.00045)
(0.43149274 1e-05 0.00045)
(0.43199272 1e-05 0.00045)
(0.4324927 1e-05 0.00045)
(0.43299268 1e-05 0.00045)
(0.43349266 1e-05 0.00045)
(0.43399264 1e-05 0.00045)
(0.43449262 1e-05 0.00045)
(0.4349926 1e-05 0.00045)
(0.43549258 1e-05 0.00045)
(0.43599256 1e-05 0.00045)
(0.43649254 1e-05 0.00045)
(0.43699252 1e-05 0.00045)
(0.4374925 1e-05 0.00045)
(0.43799248 1e-05 0.00045)
(0.43849246 1e-05 0.00045)
(0.43899244 1e-05 0.00045)
(0.43949242 1e-05 0.00045)
(0.4399924 1e-05 0.00045)
(0.44049238 1e-05 0.00045)
(0.44099236 1e-05 0.00045)
(0.44149234 1e-05 0.00045)
(0.44199232 1e-05 0.00045)
(0.4424923 1e-05 0.00045)
(0.44299228 1e-05 0.00045)
(0.44349226 1e-05 0.00045)
(0.44399224 1e-05 0.00045)
(0.44449222 1e-05 0.00045)
(0.4449922 1e-05 0.00045)
(0.44549218 1e-05 0.00045)
(0.44599216 1e-05 0.00045)
(0.44649214 1e-05 0.00045)
(0.44699212 1e-05 0.00045)
(0.4474921 1e-05 0.00045)
(0.44799208 1e-05 0.00045)
(0.44849206 1e-05 0.00045)
(0.44899204 1e-05 0.00045)
(0.44949202 1e-05 0.00045)
(0.449992 1e-05 0.00045)
(0.45049198 1e-05 0.00045)
(0.45099196 1e-05 0.00045)
(0.45149194 1e-05 0.00045)
(0.45199192 1e-05 0.00045)
(0.4524919 1e-05 0.00045)
(0.45299188 1e-05 0.00045)
(0.45349186 1e-05 0.00045)
(0.45399184 1e-05 0.00045)
(0.45449182 1e-05 0.00045)
(0.4549918 1e-05 0.00045)
(0.45549178 1e-05 0.00045)
(0.45599176 1e-05 0.00045)
(0.45649174 1e-05 0.00045)
(0.45699172 1e-05 0.00045)
(0.4574917 1e-05 0.00045)
(0.45799168 1e-05 0.00045)
(0.45849166 1e-05 0.00045)
(0.45899164 1e-05 0.00045)
(0.45949162 1e-05 0.00045)
(0.4599916 1e-05 0.00045)
(0.46049158 1e-05 0.00045)
(0.46099156 1e-05 0.00045)
(0.46149154 1e-05 0.00045)
(0.46199152 1e-05 0.00045)
(0.4624915 1e-05 0.00045)
(0.46299148 1e-05 0.00045)
(0.46349146 1e-05 0.00045)
(0.46399144 1e-05 0.00045)
(0.46449142 1e-05 0.00045)
(0.4649914 1e-05 0.00045)
(0.46549138 1e-05 0.00045)
(0.46599136 1e-05 0.00045)
(0.46649134 1e-05 0.00045)
(0.46699132 1e-05 0.00045)
(0.4674913 1e-05 0.00045)
(0.46799128 1e-05 0.00045)
(0.46849126 1e-05 0.00045)
(0.46899124 1e-05 0.00045)
(0.46949122 1e-05 0.00045)
(0.4699912 1e-05 0.00045)
(0.47049118 1e-05 0.00045)
(0.47099116 1e-05 0.00045)
(0.47149114 1e-05 0.00045)
(0.47199112 1e-05 0.00045)
(0.4724911 1e-05 0.00045)
(0.47299108 1e-05 0.00045)
(0.47349106 1e-05 0.00045)
(0.47399104 1e-05 0.00045)
(0.47449102 1e-05 0.00045)
(0.474991 1e-05 0.00045)
(0.47549098 1e-05 0.00045)
(0.47599096 1e-05 0.00045)
(0.47649094 1e-05 0.00045)
(0.47699092 1e-05 0.00045)
(0.4774909 1e-05 0.00045)
(0.47799088 1e-05 0.00045)
(0.47849086 1e-05 0.00045)
(0.47899084 1e-05 0.00045)
(0.47949082 1e-05 0.00045)
(0.4799908 1e-05 0.00045)
(0.48049078 1e-05 0.00045)
(0.48099076 1e-05 0.00045)
(0.48149074 1e-05 0.00045)
(0.48199072 1e-05 0.00045)
(0.4824907 1e-05 0.00045)
(0.48299068 1e-05 0.00045)
(0.48349066 1e-05 0.00045)
(0.48399064 1e-05 0.00045)
(0.48449062 1e-05 0.00045)
(0.4849906 1e-05 0.00045)
(0.48549058 1e-05 0.00045)
(0.48599056 1e-05 0.00045)
(0.48649054 1e-05 0.00045)
(0.48699052 1e-05 0.00045)
(0.4874905 1e-05 0.00045)
(0.48799048 1e-05 0.00045)
(0.48849046 1e-05 0.00045)
(0.48899044 1e-05 0.00045)
(0.48949042 1e-05 0.00045)
(0.4899904 1e-05 0.00045)
(0.49049038 1e-05 0.00045)
(0.49099036 1e-05 0.00045)
(0.49149034 1e-05 0.00045)
(0.49199032 1e-05 0.00045)
(0.4924903 1e-05 0.00045)
(0.49299028 1e-05 0.00045)
(0.49349026 1e-05 0.00045)
(0.49399024 1e-05 0.00045)
(0.49449022 1e-05 0.00045)
(0.4949902 1e-05 0.00045)
(0.49549018 1e-05 0.00045)
(0.49599016 1e-05 0.00045)
(0.49649014 1e-05 0.00045)
(0.49699012 1e-05 0.00045)
(0.4974901 1e-05 0.00045)
(0.49799008 1e-05 0.00045)
(0.49849006 1e-05 0.00045)
(0.49899004 1e-05 0.00045)
(0.49949002 1e-05 0.00045)
(0.49999 1e-05 0.00045)
(1e-05 0.0005098113208 0.00045)
(0.00050998 0.0005098113208 0.00045)
(0.00100996 0.0005098113208 0.00045)
(0.00150994 0.0005098113208 0.00045)
(0.00200992 0.0005098113208 0.00045)
(0.0025099 0.0005098113208 0.00045)
(0.00300988 0.0005098113208 0.00045)
(0.00350986 0.0005098113208 0.00045)
(0.00400984 0.0005098113208 0.00045)
(0.00450982 0.0005098113208 0.00045)
(0.0050098 0.0005098113208 0.00045)
(0.00550978 0.0005098113208 0.00045)
(0.00600976 0.0005098113208 0.00045)
(0.00650974 0.0005098113208 0.00045)
(0.00700972 0.0005098113208 0.00045)
(0.0075097 0.0005098113208 0.00045)
(0.00800968 0.0005098113208 0.00045)
(0.00850966 0.0005098113208 0.00045)
(0.00900964 0.0005098113208 0.00045)
(0.00950962 0.0005098113208 0.00045)
(0.0100096 0.0005098113208 0.00045)
(0.01050958 0.0005098113208 0.00045)
(0.01100956 0.0005098113208 0.00045)
(0.01150954 0.0005098113208 0.00045)
(0.01200952 0.0005098113208 0.00045)
(0.0125095 0.0005098113208 0.00045)
(0.01300948 0.0005098113208 0.00045)
(0.01350946 0.0005098113208 0.00045)
(0.01400944 0.0005098113208 0.00045)
(0.01450942 0.0005098113208 0.00045)
(0.0150094 0.0005098113208 0.00045)
(0.01550938 0.0005098113208 0.00045)
(0.01600936 0.0005098113208 0.00045)
(0.01650934 0.0005098113208 0.00045)
(0.01700932 0.0005098113208 0.00045)
(0.0175093 0.0005098113208 0.00045)
(0.01800928 0.0005098113208 0.00045)
(0.01850926 0.0005098113208 0.00045)
(0.01900924 0.0005098113208 0.00045)
(0.01950922 0.0005098113208 0.00045)
(0.0200092 0.0005098113208 0.00045)
(0.02050918 0.0005098113208 0.00045)
(0.02100916 0.0005098113208 0.00045)
(0.02150914 0.0005098113208 0.00045)
(0.02200912 0.0005098113208 0.00045)
(0.0225091 0.0005098113208 0.00045)
(0.02300908 0.0005098113208 0.00045)
(0.02350906 0.0005098113208 0.00045)
(0.02400904 0.0005098113208 0.00045)
(0.02450902 0.0005098113208 0.00045)
(0.025009 0.0005098113208 0.00045)
(0.02550898 0.0005098113208 0.00045)
(0.02600896 0.0005098113208 0.00045)
(0.02650894 0.0005098113208 0.00045)
(0.02700892 0.0005098113208 0.00045)
(0.0275089 0.0005098113208 0.00045)
(0.02800888 0.0005098113208 0.00045)
(0.02850886 0.0005098113208 0.00045)
(0.02900884 0.0005098113208 0.00045)
(0.02950882 0.0005098113208 0.00045)
(0.0300088 0.0005098113208 0.00045)
(0.03050878 0.0005098113208 0.00045)
(0.03100876 0.0005098113208 0.00045)
(0.03150874 0.0005098113208 0.00045)
(0.03200872 0.0005098113208 0.00045)
(0.0325087 0.0005098113208 0.00045)
(0.03300868 0.0005098113208 0.00045)
(0.03350866 0.0005098113208 0.00045)
(0.03400864 0.0005098113208 0.00045)
(0.03450862 0.0005098113208 0.00045)