/*--------------------------------*- C++ -*----------------------------------*\
  =========                 |
  \\      /  F ield         | OpenFOAM: The Open Source CFD Toolbox
   \\    /   O peration     | Website:  https://openfoam.org
    \\  /    A nd           | Version:  7
     \\/     M anipulation  |
\*---------------------------------------------------------------------------*/

FoamFile
{
    version     2.0;
    format      ascii;
    location    "";
    class       vectorField;
    object      C6H14P;
}

// * * * * * * * * * * * * * * * * * * * * * * * * * * * * * * * * * * * * * //
(
(1e-05 1e-06 0.00045)
(0.000509995 1e-06 0.00045)
(0.00100999 1e-06 0.00045)
(0.001509985 1e-06 0.00045)
(0.00200998 1e-06 0.00045)
(0.002509975 1e-06 0.00045)
(0.00300997 1e-06 0.00045)
(0.003509965 1e-06 0.00045)
(0.00400996 1e-06 0.00045)
(0.004509955 1e-06 0.00045)
(0.00500995 1e-06 0.00045)
(0.005509945 1e-06 0.00045)
(0.00600994 1e-06 0.00045)
(0.006509935 1e-06 0.00045)
(0.00700993 1e-06 0.00045)
(0.007509925 1e-06 0.00045)
(0.00800992 1e-06 0.00045)
(0.008509915 1e-06 0.00045)
(0.00900991 1e-06 0.00045)
(0.009509905 1e-06 0.00045)
(0.0100099 1e-06 0.00045)
(0.010509895 1e-06 0.00045)
(0.01100989 1e-06 0.00045)
(0.011509885 1e-06 0.00045)
(0.01200988 1e-06 0.00045)
(0.012509875 1e-06 0.00045)
(0.01300987 1e-06 0.00045)
(0.013509865 1e-06 0.00045)
(0.01400986 1e-06 0.00045)
(0.014509855 1e-06 0.00045)
(0.01500985 1e-06 0.00045)
(0.015509845 1e-06 0.00045)
(0.01600984 1e-06 0.00045)
(0.016509835 1e-06 0.00045)
(0.01700983 1e-06 0.00045)
(0.017509825 1e-06 0.00045)
(0.01800982 1e-06 0.00045)
(0.018509815 1e-06 0.00045)
(0.01900981 1e-06 0.00045)
(0.019509805 1e-06 0.00045)
(0.0200098 1e-06 0.00045)
(0.020509795 1e-06 0.00045)
(0.02100979 1e-06 0.00045)
(0.021509785 1e-06 0.00045)
(0.02200978 1e-06 0.00045)
(0.022509775 1e-06 0.00045)
(0.02300977 1e-06 0.00045)
(0.023509765 1e-06 0.00045)
(0.02400976 1e-06 0.00045)
(0.024509755 1e-06 0.00045)
(0.02500975 1e-06 0.00045)
(0.025509745 1e-06 0.00045)
(0.02600974 1e-06 0.00045)
(0.026509735 1e-06 0.00045)
(0.02700973 1e-06 0.00045)
(0.027509725 1e-06 0.00045)
(0.02800972 1e-06 0.00045)
(0.028509715 1e-06 0.00045)
(0.02900971 1e-06 0.00045)
(0.029509705 1e-06 0.00045)
(0.0300097 1e-06 0.00045)
(0.030509695 1e-06 0.00045)
(0.03100969 1e-06 0.00045)
(0.031509685 1e-06 0.00045)
(0.03200968 1e-06 0.00045)
(0.032509675 1e-06 0.00045)
(0.03300967 1e-06 0.00045)
(0.033509665 1e-06 0.00045)
(0.03400966 1e-06 0.00045)
(0.034509655 1e-06 0.00045)
(0.03500965 1e-06 0.00045)
(0.035509645 1e-06 0.00045)
(0.03600964 1e-06 0.00045)
(0.036509635 1e-06 0.00045)
(0.03700963 1e-06 0.00045)
(0.037509625 1e-06 0.00045)
(0.03800962 1e-06 0.00045)
(0.038509615 1e-06 0.00045)
(0.03900961 1e-06 0.00045)
(0.039509605 1e-06 0.00045)
(0.0400096 1e-06 0.00045)
(0.040509595 1e-06 0.00045)
(0.04100959 1e-06 0.00045)
(0.041509585 1e-06 0.00045)
(0.04200958 1e-06 0.00045)
(0.042509575 1e-06 0.00045)
(0.04300957 1e-06 0.00045)
(0.043509565 1e-06 0.00045)
(0.04400956 1e-06 0.00045)
(0.044509555 1e-06 0.00045)
(0.04500955 1e-06 0.00045)
(0.045509545 1e-06 0.00045)
(0.04600954 1e-06 0.00045)
(0.046509535 1e-06 0.00045)
(0.04700953 1e-06 0.00045)
(0.047509525 1e-06 0.00045)
(0.04800952 1e-06 0.00045)
(0.048509515 1e-06 0.00045)
(0.04900951 1e-06 0.00045)
(0.049509505 1e-06 0.00045)
(0.0500095 1e-06 0.00045)
(0.050509495 1e-06 0.00045)
(0.05100949 1e-06 0.00045)
(0.051509485 1e-06 0.00045)
(0.05200948 1e-06 0.00045)
(0.052509475 1e-06 0.00045)
(0.05300947 1e-06 0.00045)
(0.053509465 1e-06 0.00045)
(0.05400946 1e-06 0.00045)
(0.054509455 1e-06 0.00045)
(0.05500945 1e-06 0.00045)
(0.055509445 1e-06 0.00045)
(0.05600944 1e-06 0.00045)
(0.056509435 1e-06 0.00045)
(0.05700943 1e-06 0.00045)
(0.057509425 1e-06 0.00045)
(0.05800942 1e-06 0.00045)
(0.058509415 1e-06 0.00045)
(0.05900941 1e-06 0.00045)
(0.059509405 1e-06 0.00045)
(0.0600094 1e-06 0.00045)
(0.060509395 1e-06 0.00045)
(0.06100939 1e-06 0.00045)
(0.061509385 1e-06 0.00045)
(0.06200938 1e-06 0.00045)
(0.062509375 1e-06 0.00045)
(0.06300937 1e-06 0.00045)
(0.063509365 1e-06 0.00045)
(0.06400936 1e-06 0.00045)
(0.064509355 1e-06 0.00045)
(0.06500935 1e-06 0.00045)
(0.065509345 1e-06 0.00045)
(0.06600934 1e-06 0.00045)
(0.066509335 1e-06 0.00045)
(0.06700933 1e-06 0.00045)
(0.067509325 1e-06 0.00045)
(0.06800932 1e-06 0.00045)
(0.068509315 1e-06 0.00045)
(0.06900931 1e-06 0.00045)
(0.069509305 1e-06 0.00045)
(0.0700093 1e-06 0.00045)
(0.070509295 1e-06 0.00045)
(0.07100929 1e-06 0.00045)
(0.071509285 1e-06 0.00045)
(0.07200928 1e-06 0.00045)
(0.072509275 1e-06 0.00045)
(0.07300927 1e-06 0.00045)
(0.073509265 1e-06 0.00045)
(0.07400926 1e-06 0.00045)
(0.074509255 1e-06 0.00045)
(0.07500925 1e-06 0.00045)
(0.075509245 1e-06 0.00045)
(0.07600924 1e-06 0.00045)
(0.076509235 1e-06 0.00045)
(0.07700923 1e-06 0.00045)
(0.077509225 1e-06 0.00045)
(0.07800922 1e-06 0.00045)
(0.078509215 1e-06 0.00045)
(0.07900921 1e-06 0.00045)
(0.079509205 1e-06 0.00045)
(0.0800092 1e-06 0.00045)
(0.080509195 1e-06 0.00045)
(0.08100919 1e-06 0.00045)
(0.081509185 1e-06 0.00045)
(0.08200918 1e-06 0.00045)
(0.082509175 1e-06 0.00045)
(0.08300917 1e-06 0.00045)
(0.083509165 1e-06 0.00045)
(0.08400916 1e-06 0.00045)
(0.084509155 1e-06 0.00045)
(0.08500915 1e-06 0.00045)
(0.085509145 1e-06 0.00045)
(0.08600914 1e-06 0.00045)
(0.086509135 1e-06 0.00045)
(0.08700913 1e-06 0.00045)
(0.087509125 1e-06 0.00045)
(0.08800912 1e-06 0.00045)
(0.088509115 1e-06 0.00045)
(0.08900911 1e-06 0.00045)
(0.089509105 1e-06 0.00045)
(0.0900091 1e-06 0.00045)
(0.090509095 1e-06 0.00045)
(0.09100909 1e-06 0.00045)
(0.091509085 1e-06 0.00045)
(0.09200908 1e-06 0.00045)
(0.092509075 1e-06 0.00045)
(0.09300907 1e-06 0.00045)
(0.093509065 1e-06 0.00045)
(0.09400906 1e-06 0.00045)
(0.094509055 1e-06 0.00045)
(0.09500905 1e-06 0.00045)
(0.095509045 1e-06 0.00045)
(0.09600904 1e-06 0.00045)
(0.096509035 1e-06 0.00045)
(0.09700903 1e-06 0.00045)
(0.097509025 1e-06 0.00045)
(0.09800902 1e-06 0.00045)
(0.098509015 1e-06 0.00045)
(0.09900901 1e-06 0.00045)
(0.099509005 1e-06 0.00045)
(0.100009 1e-06 0.00045)
(0.100508995 1e-06 0.00045)
(0.10100899 1e-06 0.00045)
(0.101508985 1e-06 0.00045)
(0.10200898 1e-06 0.00045)
(0.102508975 1e-06 0.00045)
(0.10300897 1e-06 0.00045)
(0.103508965 1e-06 0.00045)
(0.10400896 1e-06 0.00045)
(0.104508955 1e-06 0.00045)
(0.10500895 1e-06 0.00045)
(0.105508945 1e-06 0.00045)
(0.10600894 1e-06 0.00045)
(0.106508935 1e-06 0.00045)
(0.10700893 1e-06 0.00045)
(0.107508925 1e-06 0.00045)
(0.10800892 1e-06 0.00045)
(0.108508915 1e-06 0.00045)
(0.10900891 1e-06 0.00045)
(0.109508905 1e-06 0.00045)
(0.1100089 1e-06 0.00045)
(0.110508895 1e-06 0.00045)
(0.11100889 1e-06 0.00045)
(0.111508885 1e-06 0.00045)
(0.11200888 1e-06 0.00045)
(0.112508875 1e-06 0.00045)
(0.11300887 1e-06 0.00045)
(0.113508865 1e-06 0.00045)
(0.11400886 1e-06 0.00045)
(0.114508855 1e-06 0.00045)
(0.11500885 1e-06 0.00045)
(0.115508845 1e-06 0.00045)
(0.11600884 1e-06 0.00045)
(0.116508835 1e-06 0.00045)
(0.11700883 1e-06 0.00045)
(0.117508825 1e-06 0.00045)
(0.11800882 1e-06 0.00045)
(0.118508815 1e-06 0.00045)
(0.11900881 1e-06 0.00045)
(0.119508805 1e-06 0.00045)
(0.1200088 1e-06 0.00045)
(0.120508795 1e-06 0.00045)
(0.12100879 1e-06 0.00045)
(0.121508785 1e-06 0.00045)
(0.12200878 1e-06 0.00045)
(0.122508775 1e-06 0.00045)
(0.12300877 1e-06 0.00045)
(0.123508765 1e-06 0.00045)
(0.12400876 1e-06 0.00045)
(0.124508755 1e-06 0.00045)
(0.12500875 1e-06 0.00045)
(0.125508745 1e-06 0.00045)
(0.12600874 1e-06 0.00045)
(0.126508735 1e-06 0.00045)
(0.12700873 1e-06 0.00045)
(0.127508725 1e-06 0.00045)
(0.12800872 1e-06 0.00045)
(0.128508715 1e-06 0.00045)
(0.12900871 1e-06 0.00045)
(0.129508705 1e-06 0.00045)
(0.1300087 1e-06 0.00045)
(0.130508695 1e-06 0.00045)
(0.13100869 1e-06 0.00045)
(0.131508685 1e-06 0.00045)
(0.13200868 1e-06 0.00045)
(0.132508675 1e-06 0.00045)
(0.13300867 1e-06 0.00045)
(0.133508665 1e-06 0.00045)
(0.13400866 1e-06 0.00045)
(0.134508655 1e-06 0.00045)
(0.13500865 1e-06 0.00045)
(0.135508645 1e-06 0.00045)
(0.13600864 1e-06 0.00045)
(0.136508635 1e-06 0.00045)
(0.13700863 1e-06 0.00045)
(0.137508625 1e-06 0.00045)
(0.13800862 1e-06 0.00045)
(0.138508615 1e-06 0.00045)
(0.13900861 1e-06 0.00045)
(0.139508605 1e-06 0.00045)
(0.1400086 1e-06 0.00045)
(0.140508595 1e-06 0.00045)
(0.14100859 1e-06 0.00045)
(0.141508585 1e-06 0.00045)
(0.14200858 1e-06 0.00045)
(0.142508575 1e-06 0.00045)
(0.14300857 1e-06 0.00045)
(0.143508565 1e-06 0.00045)
(0.14400856 1e-06 0.00045)
(0.144508555 1e-06 0.00045)
(0.14500855 1e-06 0.00045)
(0.145508545 1e-06 0.00045)
(0.14600854 1e-06 0.00045)
(0.146508535 1e-06 0.00045)
(0.14700853 1e-06 0.00045)
(0.147508525 1e-06 0.00045)
(0.14800852 1e-06 0.00045)
(0.148508515 1e-06 0.00045)
(0.14900851 1e-06 0.00045)
(0.149508505 1e-06 0.00045)
(0.1500085 1e-06 0.00045)
(0.150508495 1e-06 0.00045)
(0.15100849 1e-06 0.00045)
(0.151508485 1e-06 0.00045)
(0.15200848 1e-06 0.00045)
(0.152508475 1e-06 0.00045)
(0.15300847 1e-06 0.00045)
(0.153508465 1e-06 0.00045)
(0.15400846 1e-06 0.00045)
(0.154508455 1e-06 0.00045)
(0.15500845 1e-06 0.00045)
(0.155508445 1e-06 0.00045)
(0.15600844 1e-06 0.00045)
(0.156508435 1e-06 0.00045)
(0.15700843 1e-06 0.00045)
(0.157508425 1e-06 0.00045)
(0.15800842 1e-06 0.00045)
(0.158508415 1e-06 0.00045)
(0.15900841 1e-06 0.00045)
(0.159508405 1e-06 0.00045)
(0.1600084 1e-06 0.00045)
(0.160508395 1e-06 0.00045)
(0.16100839 1e-06 0.00045)
(0.161508385 1e-06 0.00045)
(0.16200838 1e-06 0.00045)
(0.162508375 1e-06 0.00045)
(0.16300837 1e-06 0.00045)
(0.163508365 1e-06 0.00045)
(0.16400836 1e-06 0.00045)
(0.164508355 1e-06 0.00045)
(0.16500835 1e-06 0.00045)
(0.165508345 1e-06 0.00045)
(0.16600834 1e-06 0.00045)
(0.166508335 1e-06 0.00045)
(0.16700833 1e-06 0.00045)
(0.167508325 1e-06 0.00045)
(0.16800832 1e-06 0.00045)
(0.168508315 1e-06 0.00045)
(0.16900831 1e-06 0.00045)
(0.169508305 1e-06 0.00045)
(0.1700083 1e-06 0.00045)
(0.170508295 1e-06 0.00045)
(0.17100829 1e-06 0.00045)
(0.171508285 1e-06 0.00045)
(0.17200828 1e-06 0.00045)
(0.172508275 1e-06 0.00045)
(0.17300827 1e-06 0.00045)
(0.173508265 1e-06 0.00045)
(0.17400826 1e-06 0.00045)
(0.174508255 1e-06 0.00045)
(0.17500825 1e-06 0.00045)
(0.175508245 1e-06 0.00045)
(0.17600824 1e-06 0.00045)
(0.176508235 1e-06 0.00045)
(0.17700823 1e-06 0.00045)
(0.177508225 1e-06 0.00045)
(0.17800822 1e-06 0.00045)
(0.178508215 1e-06 0.00045)
(0.17900821 1e-06 0.00045)
(0.179508205 1e-06 0.00045)
(0.1800082 1e-06 0.00045)
(0.180508195 1e-06 0.00045)
(0.18100819 1e-06 0.00045)
(0.181508185 1e-06 0.00045)
(0.18200818 1e-06 0.00045)
(0.182508175 1e-06 0.00045)
(0.18300817 1e-06 0.00045)
(0.183508165 1e-06 0.00045)
(0.18400816 1e-06 0.00045)
(0.184508155 1e-06 0.00045)
(0.18500815 1e-06 0.00045)
(0.185508145 1e-06 0.00045)
(0.18600814 1e-06 0.00045)
(0.186508135 1e-06 0.00045)
(0.18700813 1e-06 0.00045)
(0.187508125 1e-06 0.00045)
(0.18800812 1e-06 0.00045)
(0.188508115 1e-06 0.00045)
(0.18900811 1e-06 0.00045)
(0.189508105 1e-06 0.00045)
(0.1900081 1e-06 0.00045)
(0.190508095 1e-06 0.00045)
(0.19100809 1e-06 0.00045)
(0.191508085 1e-06 0.00045)
(0.19200808 1e-06 0.00045)
(0.192508075 1e-06 0.00045)
(0.19300807 1e-06 0.00045)
(0.193508065 1e-06 0.00045)
(0.19400806 1e-06 0.00045)
(0.194508055 1e-06 0.00045)
(0.19500805 1e-06 0.00045)
(0.195508045 1e-06 0.00045)
(0.19600804 1e-06 0.00045)
(0.196508035 1e-06 0.00045)
(0.19700803 1e-06 0.00045)
(0.197508025 1e-06 0.00045)
(0.19800802 1e-06 0.00045)
(0.198508015 1e-06 0.00045)
(0.19900801 1e-06 0.00045)
(0.199508005 1e-06 0.00045)
(0.200008 1e-06 0.00045)
(0.200507995 1e-06 0.00045)
(0.20100799 1e-06 0.00045)
(0.201507985 1e-06 0.00045)
(0.20200798 1e-06 0.00045)
(0.202507975 1e-06 0.00045)
(0.20300797 1e-06 0.00045)
(0.203507965 1e-06 0.00045)
(0.20400796 1e-06 0.00045)
(0.204507955 1e-06 0.00045)
(0.20500795 1e-06 0.00045)
(0.205507945 1e-06 0.00045)
(0.20600794 1e-06 0.00045)
(0.206507935 1e-06 0.00045)
(0.20700793 1e-06 0.00045)
(0.207507925 1e-06 0.00045)
(0.20800792 1e-06 0.00045)
(0.208507915 1e-06 0.00045)
(0.20900791 1e-06 0.00045)
(0.209507905 1e-06 0.00045)
(0.2100079 1e-06 0.00045)
(0.210507895 1e-06 0.00045)
(0.21100789 1e-06 0.00045)
(0.211507885 1e-06 0.00045)
(0.21200788 1e-06 0.00045)
(0.212507875 1e-06 0.00045)
(0.21300787 1e-06 0.00045)
(0.213507865 1e-06 0.00045)
(0.21400786 1e-06 0.00045)
(0.214507855 1e-06 0.00045)
(0.21500785 1e-06 0.00045)
(0.215507845 1e-06 0.00045)
(0.21600784 1e-06 0.00045)
(0.216507835 1e-06 0.00045)
(0.21700783 1e-06 0.00045)
(0.217507825 1e-06 0.00045)
(0.21800782 1e-06 0.00045)
(0.218507815 1e-06 0.00045)
(0.21900781 1e-06 0.00045)
(0.219507805 1e-06 0.00045)
(0.2200078 1e-06 0.00045)
(0.220507795 1e-06 0.00045)
(0.22100779 1e-06 0.00045)
(0.221507785 1e-06 0.00045)
(0.22200778 1e-06 0.00045)
(0.222507775 1e-06 0.00045)
(0.22300777 1e-06 0.00045)
(0.223507765 1e-06 0.00045)
(0.22400776 1e-06 0.00045)
(0.224507755 1e-06 0.00045)
(0.22500775 1e-06 0.00045)
(0.225507745 1e-06 0.00045)
(0.22600774 1e-06 0.00045)
(0.226507735 1e-06 0.00045)
(0.22700773 1e-06 0.00045)
(0.227507725 1e-06 0.00045)
(0.22800772 1e-06 0.00045)
(0.228507715 1e-06 0.00045)
(0.22900771 1e-06 0.00045)
(0.229507705 1e-06 0.00045)
(0.2300077 1e-06 0.00045)
(0.230507695 1e-06 0.00045)
(0.23100769 1e-06 0.00045)
(0.231507685 1e-06 0.00045)
(0.23200768 1e-06 0.00045)
(0.232507675 1e-06 0.00045)
(0.23300767 1e-06 0.00045)
(0.233507665 1e-06 0.00045)
(0.23400766 1e-06 0.00045)
(0.234507655 1e-06 0.00045)
(0.23500765 1e-06 0.00045)
(0.235507645 1e-06 0.00045)
(0.23600764 1e-06 0.00045)
(0.236507635 1e-06 0.00045)
(0.23700763 1e-06 0.00045)
(0.237507625 1e-06 0.00045)
(0.23800762 1e-06 0.00045)
(0.238507615 1e-06 0.00045)
(0.23900761 1e-06 0.00045)
(0.239507605 1e-06 0.00045)
(0.2400076 1e-06 0.00045)
(0.240507595 1e-06 0.00045)
(0.24100759 1e-06 0.00045)
(0.241507585 1e-06 0.00045)
(0.24200758 1e-06 0.00045)
(0.242507575 1e-06 0.00045)
(0.24300757 1e-06 0.00045)
(0.243507565 1e-06 0.00045)
(0.24400756 1e-06 0.00045)
(0.244507555 1e-06 0.00045)
(0.24500755 1e-06 0.00045)
(0.245507545 1e-06 0.00045)
(0.24600754 1e-06 0.00045)
(0.246507535 1e-06 0.00045)
(0.24700753 1e-06 0.00045)
(0.247507525 1e-06 0.00045)
(0.24800752 1e-06 0.00045)
(0.248507515 1e-06 0.00045)
(0.24900751 1e-06 0.00045)
(0.249507505 1e-06 0.00045)
(0.2500075 1e-06 0.00045)
(0.250507495 1e-06 0.00045)
(0.25100749 1e-06 0.00045)
(0.251507485 1e-06 0.00045)
(0.25200748 1e-06 0.00045)
(0.252507475 1e-06 0.00045)
(0.25300747 1e-06 0.00045)
(0.253507465 1e-06 0.00045)
(0.25400746 1e-06 0.00045)
(0.254507455 1e-06 0.00045)
(0.25500745 1e-06 0.00045)
(0.255507445 1e-06 0.00045)
(0.25600744 1e-06 0.00045)
(0.256507435 1e-06 0.00045)
(0.25700743 1e-06 0.00045)
(0.257507425 1e-06 0.00045)
(0.25800742 1e-06 0.00045)
(0.258507415 1e-06 0.00045)
(0.25900741 1e-06 0.00045)
(0.259507405 1e-06 0.00045)
(0.2600074 1e-06 0.00045)
(0.260507395 1e-06 0.00045)
(0.26100739 1e-06 0.00045)
(0.261507385 1e-06 0.00045)
(0.26200738 1e-06 0.00045)
(0.262507375 1e-06 0.00045)
(0.26300737 1e-06 0.00045)
(0.263507365 1e-06 0.00045)
(0.26400736 1e-06 0.00045)
(0.264507355 1e-06 0.00045)
(0.26500735 1e-06 0.00045)
(0.265507345 1e-06 0.00045)
(0.26600734 1e-06 0.00045)
(0.266507335 1e-06 0.00045)
(0.26700733 1e-06 0.00045)
(0.267507325 1e-06 0.00045)
(0.26800732 1e-06 0.00045)
(0.268507315 1e-06 0.00045)
(0.26900731 1e-06 0.00045)
(0.269507305 1e-06 0.00045)
(0.2700073 1e-06 0.00045)
(0.270507295 1e-06 0.00045)
(0.27100729 1e-06 0.00045)
(0.271507285 1e-06 0.00045)
(0.27200728 1e-06 0.00045)
(0.272507275 1e-06 0.00045)
(0.27300727 1e-06 0.00045)
(0.273507265 1e-06 0.00045)
(0.27400726 1e-06 0.00045)
(0.274507255 1e-06 0.00045)
(0.27500725 1e-06 0.00045)
(0.275507245 1e-06 0.00045)
(0.27600724 1e-06 0.00045)
(0.276507235 1e-06 0.00045)
(0.27700723 1e-06 0.00045)
(0.277507225 1e-06 0.00045)
(0.27800722 1e-06 0.00045)
(0.278507215 1e-06 0.00045)
(0.27900721 1e-06 0.00045)
(0.279507205 1e-06 0.00045)
(0.2800072 1e-06 0.00045)
(0.280507195 1e-06 0.00045)
(0.28100719 1e-06 0.00045)
(0.281507185 1e-06 0.00045)
(0.28200718 1e-06 0.00045)
(0.282507175 1e-06 0.00045)
(0.28300717 1e-06 0.00045)
(0.283507165 1e-06 0.00045)
(0.28400716 1e-06 0.00045)
(0.284507155 1e-06 0.00045)
(0.28500715 1e-06 0.00045)
(0.285507145 1e-06 0.00045)
(0.28600714 1e-06 0.00045)
(0.286507135 1e-06 0.00045)
(0.28700713 1e-06 0.00045)
(0.287507125 1e-06 0.00045)
(0.28800712 1e-06 0.00045)
(0.288507115 1e-06 0.00045)
(0.28900711 1e-06 0.00045)
(0.289507105 1e-06 0.00045)
(0.2900071 1e-06 0.00045)
(0.290507095 1e-06 0.00045)
(0.29100709 1e-06 0.00045)
(0.291507085 1e-06 0.00045)
(0.29200708 1e-06 0.00045)
(0.292507075 1e-06 0.00045)
(0.29300707 1e-06 0.00045)
(0.293507065 1e-06 0.00045)
(0.29400706 1e-06 0.00045)
(0.294507055 1e-06 0.00045)
(0.29500705 1e-06 0.00045)
(0.295507045 1e-06 0.00045)
(0.29600704 1e-06 0.00045)
(0.296507035 1e-06 0.00045)
(0.29700703 1e-06 0.00045)
(0.297507025 1e-06 0.00045)
(0.29800702 1e-06 0.00045)
(0.298507015 1e-06 0.00045)
(0.29900701 1e-06 0.00045)
(0.299507005 1e-06 0.00045)
(0.300007 1e-06 0.00045)
(0.300506995 1e-06 0.00045)
(0.30100699 1e-06 0.00045)
(0.301506985 1e-06 0.00045)
(0.30200698 1e-06 0.00045)
(0.302506975 1e-06 0.00045)
(0.30300697 1e-06 0.00045)
(0.303506965 1e-06 0.00045)
(0.30400696 1e-06 0.00045)
(0.304506955 1e-06 0.00045)
(0.30500695 1e-06 0.00045)
(0.305506945 1e-06 0.00045)
(0.30600694 1e-06 0.00045)
(0.306506935 1e-06 0.00045)
(0.30700693 1e-06 0.00045)
(0.307506925 1e-06 0.00045)
(0.30800692 1e-06 0.00045)
(0.308506915 1e-06 0.00045)
(0.30900691 1e-06 0.00045)
(0.309506905 1e-06 0.00045)
(0.3100069 1e-06 0.00045)
(0.310506895 1e-06 0.00045)
(0.31100689 1e-06 0.00045)
(0.311506885 1e-06 0.00045)
(0.31200688 1e-06 0.00045)
(0.312506875 1e-06 0.00045)
(0.31300687 1e-06 0.00045)
(0.313506865 1e-06 0.00045)
(0.31400686 1e-06 0.00045)
(0.314506855 1e-06 0.00045)
(0.31500685 1e-06 0.00045)
(0.315506845 1e-06 0.00045)
(0.31600684 1e-06 0.00045)
(0.316506835 1e-06 0.00045)
(0.31700683 1e-06 0.00045)
(0.317506825 1e-06 0.00045)
(0.31800682 1e-06 0.00045)
(0.318506815 1e-06 0.00045)
(0.31900681 1e-06 0.00045)
(0.319506805 1e-06 0.00045)
(0.3200068 1e-06 0.00045)
(0.320506795 1e-06 0.00045)
(0.32100679 1e-06 0.00045)
(0.321506785 1e-06 0.00045)
(0.32200678 1e-06 0.00045)
(0.322506775 1e-06 0.00045)
(0.32300677 1e-06 0.00045)
(0.323506765 1e-06 0.00045)
(0.32400676 1e-06 0.00045)
(0.324506755 1e-06 0.00045)
(0.32500675 1e-06 0.00045)
(0.325506745 1e-06 0.00045)
(0.32600674 1e-06 0.00045)
(0.326506735 1e-06 0.00045)
(0.32700673 1e-06 0.00045)
(0.327506725 1e-06 0.00045)
(0.32800672 1e-06 0.00045)
(0.328506715 1e-06 0.00045)
(0.32900671 1e-06 0.00045)
(0.329506705 1e-06 0.00045)
(0.3300067 1e-06 0.00045)
(0.330506695 1e-06 0.00045)
(0.33100669 1e-06 0.00045)
(0.331506685 1e-06 0.00045)
(0.33200668 1e-06 0.00045)
(0.332506675 1e-06 0.00045)
(0.33300667 1e-06 0.00045)
(0.333506665 1e-06 0.00045)
(0.33400666 1e-06 0.00045)
(0.334506655 1e-06 0.00045)
(0.33500665 1e-06 0.00045)
(0.335506645 1e-06 0.00045)
(0.33600664 1e-06 0.00045)
(0.336506635 1e-06 0.00045)
(0.33700663 1e-06 0.00045)
(0.337506625 1e-06 0.00045)
(0.33800662 1e-06 0.00045)
(0.338506615 1e-06 0.00045)
(0.33900661 1e-06 0.00045)
(0.339506605 1e-06 0.00045)
(0.3400066 1e-06 0.00045)
(0.340506595 1e-06 0.00045)
(0.34100659 1e-06 0.00045)
(0.341506585 1e-06 0.00045)
(0.34200658 1e-06 0.00045)
(0.342506575 1e-06 0.00045)
(0.34300657 1e-06 0.00045)
(0.343506565 1e-06 0.00045)
(0.34400656 1e-06 0.00045)
(0.344506555 1e-06 0.00045)
(0.34500655 1e-06 0.00045)
(0.345506545 1e-06 0.00045)
(0.34600654 1e-06 0.00045)
(0.346506535 1e-06 0.00045)
(0.34700653 1e-06 0.00045)
(0.347506525 1e-06 0.00045)
(0.34800652 1e-06 0.00045)
(0.348506515 1e-06 0.00045)
(0.34900651 1e-06 0.00045)
(0.349506505 1e-06 0.00045)
(0.3500065 1e-06 0.00045)
(0.350506495 1e-06 0.00045)
(0.35100649 1e-06 0.00045)
(0.351506485 1e-06 0.00045)
(0.35200648 1e-06 0.00045)
(0.352506475 1e-06 0.00045)
(0.35300647 1e-06 0.00045)
(0.353506465 1e-06 0.00045)
(0.35400646 1e-06 0.00045)
(0.354506455 1e-06 0.00045)
(0.35500645 1e-06 0.00045)
(0.355506445 1e-06 0.00045)
(0.35600644 1e-06 0.00045)
(0.356506435 1e-06 0.00045)
(0.35700643 1e-06 0.00045)
(0.357506425 1e-06 0.00045)
(0.35800642 1e-06 0.00045)
(0.358506415 1e-06 0.00045)
(0.35900641 1e-06 0.00045)
(0.359506405 1e-06 0.00045)
(0.3600064 1e-06 0.00045)
(0.360506395 1e-06 0.00045)
(0.36100639 1e-06 0.00045)
(0.361506385 1e-06 0.00045)
(0.36200638 1e-06 0.00045)
(0.362506375 1e-06 0.00045)
(0.36300637 1e-06 0.00045)
(0.363506365 1e-06 0.00045)
(0.36400636 1e-06 0.00045)
(0.364506355 1e-06 0.00045)
(0.36500635 1e-06 0.00045)
(0.365506345 1e-06 0.00045)
(0.36600634 1e-06 0.00045)
(0.366506335 1e-06 0.00045)
(0.36700633 1e-06 0.00045)
(0.367506325 1e-06 0.00045)
(0.36800632 1e-06 0.00045)
(0.368506315 1e-06 0.00045)
(0.36900631 1e-06 0.00045)
(0.369506305 1e-06 0.00045)
(0.3700063 1e-06 0.00045)
(0.370506295 1e-06 0.00045)
(0.37100629 1e-06 0.00045)
(0.371506285 1e-06 0.00045)
(0.37200628 1e-06 0.00045)
(0.372506275 1e-06 0.00045)
(0.37300627 1e-06 0.00045)
(0.373506265 1e-06 0.00045)
(0.37400626 1e-06 0.00045)
(0.374506255 1e-06 0.00045)
(0.37500625 1e-06 0.00045)
(0.375506245 1e-06 0.00045)
(0.37600624 1e-06 0.00045)
(0.376506235 1e-06 0.00045)
(0.37700623 1e-06 0.00045)
(0.377506225 1e-06 0.00045)
(0.37800622 1e-06 0.00045)
(0.378506215 1e-06 0.00045)
(0.37900621 1e-06 0.00045)
(0.379506205 1e-06 0.00045)
(0.3800062 1e-06 0.00045)
(0.380506195 1e-06 0.00045)
(0.38100619 1e-06 0.00045)
(0.381506185 1e-06 0.00045)
(0.38200618 1e-06 0.00045)
(0.382506175 1e-06 0.00045)
(0.38300617 1e-06 0.00045)
(0.383506165 1e-06 0.00045)
(0.38400616 1e-06 0.00045)
(0.384506155 1e-06 0.00045)
(0.38500615 1e-06 0.00045)
(0.385506145 1e-06 0.00045)
(0.38600614 1e-06 0.00045)
(0.386506135 1e-06 0.00045)
(0.38700613 1e-06 0.00045)
(0.387506125 1e-06 0.00045)
(0.38800612 1e-06 0.00045)
(0.388506115 1e-06 0.00045)
(0.38900611 1e-06 0.00045)
(0.389506105 1e-06 0.00045)
(0.3900061 1e-06 0.00045)
(0.390506095 1e-06 0.00045)
(0.39100609 1e-06 0.00045)
(0.391506085 1e-06 0.00045)
(0.39200608 1e-06 0.00045)
(0.392506075 1e-06 0.00045)
(0.39300607 1e-06 0.00045)
(0.393506065 1e-06 0.00045)
(0.39400606 1e-06 0.00045)
(0.394506055 1e-06 0.00045)
(0.39500605 1e-06 0.00045)
(0.395506045 1e-06 0.00045)
(0.39600604 1e-06 0.00045)
(0.396506035 1e-06 0.00045)
(0.39700603 1e-06 0.00045)
(0.397506025 1e-06 0.00045)
(0.39800602 1e-06 0.00045)
(0.398506015 1e-06 0.00045)
(0.39900601 1e-06 0.00045)
(0.399506005 1e-06 0.00045)
(0.400006 1e-06 0.00045)
(0.400505995 1e-06 0.00045)
(0.40100599 1e-06 0.00045)
(0.401505985 1e-06 0.00045)
(0.40200598 1e-06 0.00045)
(0.402505975 1e-06 0.00045)
(0.40300597 1e-06 0.00045)
(0.403505965 1e-06 0.00045)
(0.40400596 1e-06 0.00045)
(0.404505955 1e-06 0.00045)
(0.40500595 1e-06 0.00045)
(0.405505945 1e-06 0.00045)
(0.40600594 1e-06 0.00045)
(0.406505935 1e-06 0.00045)
(0.40700593 1e-06 0.00045)
(0.407505925 1e-06 0.00045)
(0.40800592 1e-06 0.00045)
(0.408505915 1e-06 0.00045)
(0.40900591 1e-06 0.00045)
(0.409505905 1e-06 0.00045)
(0.4100059 1e-06 0.00045)
(0.410505895 1e-06 0.00045)
(0.41100589 1e-06 0.00045)
(0.411505885 1e-06 0.00045)
(0.41200588 1e-06 0.00045)
(0.412505875 1e-06 0.00045)
(0.41300587 1e-06 0.00045)
(0.413505865 1e-06 0.00045)
(0.41400586 1e-06 0.00045)
(0.414505855 1e-06 0.00045)
(0.41500585 1e-06 0.00045)
(0.415505845 1e-06 0.00045)
(0.41600584 1e-06 0.00045)
(0.416505835 1e-06 0.00045)
(0.41700583 1e-06 0.00045)
(0.417505825 1e-06 0.00045)
(0.41800582 1e-06 0.00045)
(0.418505815 1e-06 0.00045)
(0.41900581 1e-06 0.00045)
(0.419505805 1e-06 0.00045)
(0.4200058 1e-06 0.00045)
(0.420505795 1e-06 0.00045)
(0.42100579 1e-06 0.00045)
(0.421505785 1e-06 0.00045)
(0.42200578 1e-06 0.00045)
(0.422505775 1e-06 0.00045)
(0.42300577 1e-06 0.00045)
(0.423505765 1e-06 0.00045)
(0.42400576 1e-06 0.00045)
(0.424505755 1e-06 0.00045)
(0.42500575 1e-06 0.00045)
(0.425505745 1e-06 0.00045)
(0.42600574 1e-06 0.00045)
(0.426505735 1e-06 0.00045)
(0.42700573 1e-06 0.00045)
(0.427505725 1e-06 0.00045)
(0.42800572 1e-06 0.00045)
(0.428505715 1e-06 0.00045)
(0.42900571 1e-06 0.00045)
(0.429505705 1e-06 0.00045)
(0.4300057 1e-06 0.00045)
(0.430505695 1e-06 0.00045)
(0.43100569 1e-06 0.00045)
(0.431505685 1e-06 0.00045)
(0.43200568 1e-06 0.00045)
(0.432505675 1e-06 0.00045)
(0.43300567 1e-06 0.00045)
(0.433505665 1e-06 0.00045)
(0.43400566 1e-06 0.00045)
(0.434505655 1e-06 0.00045)
(0.43500565 1e-06 0.00045)
(0.435505645 1e-06 0.00045)
(0.43600564 1e-06 0.00045)
(0.436505635 1e-06 0.00045)
(0.43700563 1e-06 0.00045)
(0.437505625 1e-06 0.00045)
(0.43800562 1e-06 0.00045)
(0.438505615 1e-06 0.00045)
(0.43900561 1e-06 0.00045)
(0.439505605 1e-06 0.00045)
(0.4400056 1e-06 0.00045)
(0.440505595 1e-06 0.00045)
(0.44100559 1e-06 0.00045)
(0.441505585 1e-06 0.00045)
(0.44200558 1e-06 0.00045)
(0.442505575 1e-06 0.00045)
(0.44300557 1e-06 0.00045)
(0.443505565 1e-06 0.00045)
(0.44400556 1e-06 0.00045)
(0.444505555 1e-06 0.00045)
(0.44500555 1e-06 0.00045)
(0.445505545 1e-06 0.00045)
(0.44600554 1e-06 0.00045)
(0.446505535 1e-06 0.00045)
(0.44700553 1e-06 0.00045)
(0.447505525 1e-06 0.00045)
(0.44800552 1e-06 0.00045)
(0.448505515 1e-06 0.00045)
(0.44900551 1e-06 0.00045)
(0.449505505 1e-06 0.00045)
(0.4500055 1e-06 0.00045)
(0.450505495 1e-06 0.00045)
(0.45100549 1e-06 0.00045)
(0.451505485 1e-06 0.00045)
(0.45200548 1e-06 0.00045)
(0.452505475 1e-06 0.00045)
(0.45300547 1e-06 0.00045)
(0.453505465 1e-06 0.00045)
(0.45400546 1e-06 0.00045)
(0.454505455 1e-06 0.00045)
(0.45500545 1e-06 0.00045)
(0.455505445 1e-06 0.00045)
(0.45600544 1e-06 0.00045)
(0.456505435 1e-06 0.00045)
(0.45700543 1e-06 0.00045)
(0.457505425 1e-06 0.00045)
(0.45800542 1e-06 0.00045)
(0.458505415 1e-06 0.00045)
(0.45900541 1e-06 0.00045)
(0.459505405 1e-06 0.00045)
(0.4600054 1e-06 0.00045)
(0.460505395 1e-06 0.00045)
(0.46100539 1e-06 0.00045)
(0.461505385 1e-06 0.00045)
(0.46200538 1e-06 0.00045)
(0.462505375 1e-06 0.00045)
(0.46300537 1e-06 0.00045)
(0.463505365 1e-06 0.00045)
(0.46400536 1e-06 0.00045)
(0.464505355 1e-06 0.00045)
(0.46500535 1e-06 0.00045)
(0.465505345 1e-06 0.00045)
(0.46600534 1e-06 0.00045)
(0.466505335 1e-06 0.00045)
(0.46700533 1e-06 0.00045)
(0.467505325 1e-06 0.00045)
(0.46800532 1e-06 0.00045)
(0.468505315 1e-06 0.00045)
(0.46900531 1e-06 0.00045)
(0.469505305 1e-06 0.00045)
(0.4700053 1e-06 0.00045)
(0.470505295 1e-06 0.00045)
(0.47100529 1e-06 0.00045)
(0.471505285 1e-06 0.00045)
(0.47200528 1e-06 0.00045)
(0.472505275 1e-06 0.00045)
(0.47300527 1e-06 0.00045)
(0.473505265 1e-06 0.00045)
(0.47400526 1e-06 0.00045)
(0.474505255 1e-06 0.00045)
(0.47500525 1e-06 0.00045)
(0.475505245 1e-06 0.00045)
(0.47600524 1e-06 0.00045)
(0.476505235 1e-06 0.00045)
(0.47700523 1e-06 0.00045)
(0.477505225 1e-06 0.00045)
(0.47800522 1e-06 0.00045)
(0.478505215 1e-06 0.00045)
(0.47900521 1e-06 0.00045)
(0.479505205 1e-06 0.00045)
(0.4800052 1e-06 0.00045)
(0.480505195 1e-06 0.00045)
(0.48100519 1e-06 0.00045)
(0.481505185 1e-06 0.00045)
(0.48200518 1e-06 0.00045)
(0.482505175 1e-06 0.00045)
(0.48300517 1e-06 0.00045)
(0.483505165 1e-06 0.00045)
(0.48400516 1e-06 0.00045)
(0.484505155 1e-06 0.00045)
(0.48500515 1e-06 0.00045)
(0.485505145 1e-06 0.00045)
(0.48600514 1e-06 0.00045)
(0.486505135 1e-06 0.00045)
(0.48700513 1e-06 0.00045)
(0.487505125 1e-06 0.00045)
(0.48800512 1e-06 0.00045)
(0.488505115 1e-06 0.00045)
(0.48900511 1e-06 0.00045)
(0.489505105 1e-06 0.00045)
(0.4900051 1e-06 0.00045)
(0.490505095 1e-06 0.00045)
(0.49100509 1e-06 0.00045)
(0.491505085 1e-06 0.00045)
(0.49200508 1e-06 0.00045)
(0.492505075 1e-06 0.00045)
(0.49300507 1e-06 0.00045)
(0.493505065 1e-06 0.00045)
(0.49400506 1e-06 0.00045)
(0.494505055 1e-06 0.00045)
(0.49500505 1e-06 0.00045)
(0.495505045 1e-06 0.00045)
(0.49600504 1e-06 0.00045)
(0.496505035 1e-06 0.00045)
(0.49700503 1e-06 0.00045)
(0.497505025 1e-06 0.00045)
(0.49800502 1e-06 0.00045)
(0.498505015 1e-06 0.00045)
(0.49900501 1e-06 0.00045)
(0.499505005 1e-06 0.00045)
(0.500005 1e-06 0.00045)
(0.500504995 1e-06 0.00045)
(0.50100499 1e-06 0.00045)
(0.501504985 1e-06 0.00045)
(0.50200498 1e-06 0.00045)
(0.502504975 1e-06 0.00045)
(0.50300497 1e-06 0.00045)
(0.503504965 1e-06 0.00045)
(0.50400496 1e-06 0.00045)
(0.504504955 1e-06 0.00045)
(0.50500495 1e-06 0.00045)
(0.505504945 1e-06 0.00045)
(0.50600494 1e-06 0.00045)
(0.506504935 1e-06 0.00045)
(0.50700493 1e-06 0.00045)
(0.507504925 1e-06 0.00045)
(0.50800492 1e-06 0.00045)
(0.508504915 1e-06 0.00045)
(0.50900491 1e-06 0.00045)
(0.509504905 1e-06 0.00045)
(0.5100049 1e-06 0.00045)
(0.510504895 1e-06 0.00045)
(0.51100489 1e-06 0.00045)
(0.511504885 1e-06 0.00045)
(0.51200488 1e-06 0.00045)
(0.512504875 1e-06 0.00045)
(0.51300487 1e-06 0.00045)
(0.513504865 1e-06 0.00045)
(0.51400486 1e-06 0.00045)
(0.514504855 1e-06 0.00045)
(0.51500485 1e-06 0.00045)
(0.515504845 1e-06 0.00045)
(0.51600484 1e-06 0.00045)
(0.516504835 1e-06 0.00045)
(0.51700483 1e-06 0.00045)
(0.517504825 1e-06 0.00045)
(0.51800482 1e-06 0.00045)
(0.518504815 1e-06 0.00045)
(0.51900481 1e-06 0.00045)
(0.519504805 1e-06 0.00045)
(0.5200048 1e-06 0.00045)
(0.520504795 1e-06 0.00045)
(0.52100479 1e-06 0.00045)
(0.521504785 1e-06 0.00045)
(0.52200478 1e-06 0.00045)
(0.522504775 1e-06 0.00045)
(0.52300477 1e-06 0.00045)
(0.523504765 1e-06 0.00045)
(0.52400476 1e-06 0.00045)
(0.524504755 1e-06 0.00045)
(0.52500475 1e-06 0.00045)
(0.525504745 1e-06 0.00045)
(0.52600474 1e-06 0.00045)
(0.526504735 1e-06 0.00045)
(0.52700473 1e-06 0.00045)
(0.527504725 1e-06 0.00045)
(0.52800472 1e-06 0.00045)
(0.528504715 1e-06 0.00045)
(0.52900471 1e-06 0.00045)
(0.529504705 1e-06 0.00045)
(0.5300047 1e-06 0.00045)
(0.530504695 1e-06 0.00045)
(0.53100469 1e-06 0.00045)
(0.531504685 1e-06 0.00045)
(0.53200468 1e-06 0.00045)
(0.532504675 1e-06 0.00045)
(0.53300467 1e-06 0.00045)
(0.533504665 1e-06 0.00045)
(0.53400466 1e-06 0.00045)
(0.534504655 1e-06 0.00045)
(0.53500465 1e-06 0.00045)