/*--------------------------------*- C++ -*----------------------------------*\
  =========                 |
  \\      /  F ield         | OpenFOAM: The Open Source CFD Toolbox
   \\    /   O peration     | Website:  https://openfoam.org
    \\  /    A nd           | Version:  7
     \\/     M anipulation  |
\*---------------------------------------------------------------------------*/
FoamFile
{
    version     2.0;
    format      ascii;
    class       dictionary;
    object      blockMeshDict;
}
// * * * * * * * * * * * * * * * * * * * * * * * * * * * * * * * * * * * * * //

convertToMeters 0.001;

vertices
(
    (0 0 0)
    (1000 0 0)
    (1000 1 0)
    (0 1 0)
    (0 0 2.36)
    (1000 0 2.36)
    (1000 1 2.36)
    (0 1 2.36)
);

/*vertices
(
    (1 0.01 0.01)
    (499 0.01 0.01)
    (499 4.99 0.01)
    (1 4.99 0.01)
    (1 0.01 4.99)
    (499 0.01 4.99)
    (499 4.99 4.99)
    (1 4.99 4.99)
);*/

blocks
(
    hex (0 1 2 3 4 5 6 7) (10000 1 1) simpleGrading (1 1 1)
);

edges
(
);

boundary
(
    /*upanddown
    {
        type wall;
        faces
            (
                (0 1 5 4)
                (7 6 2 3)               
            );
    }*/
    inlet
    {
        type patch;
        faces
        (
            (0 4 7 3)
        );
    }
    outlet
    {
        type patch;
        faces
        (
            (2 6 5 1)
        );
    }
    top
    {
        type empty;
        faces
        (
            (7 6 2 3)
        );
    }
    bottom
    {
        type empty;
        faces
        (
            (0 1 5 4)
        );
    }
    frontAndBack
    {
        type empty;
        faces
        (
            (3 2 1 0)
            (4 5 6 7)
        );
    }
);

mergePatchPairs
(
);

// ************************************************************************* //
