/*--------------------------------*- C++ -*----------------------------------*\
  =========                 |
  \\      /  F ield         | OpenFOAM: The Open Source CFD Toolbox
   \\    /   O peration     | Website:  https://openfoam.org
    \\  /    A nd           | Version:  7
     \\/     M anipulation  |
\*---------------------------------------------------------------------------*/

FoamFile
{
    version     2.0;
    format      ascii;
    location    "";
    class       vectorField;
    object      C6H14P;
}

// * * * * * * * * * * * * * * * * * * * * * * * * * * * * * * * * * * * * * //
(
(1e-05 0.0005 0.0005)
(5.99995e-05 0.0005 0.0005)
(0.000109999 0.0005 0.0005)
(0.0001599985 0.0005 0.0005)
(0.000209998 0.0005 0.0005)
(0.0002599975 0.0005 0.0005)
(0.000309997 0.0005 0.0005)
(0.0003599965 0.0005 0.0005)
(0.000409996 0.0005 0.0005)
(0.0004599955 0.0005 0.0005)
(0.000509995 0.0005 0.0005)
(0.0005599945 0.0005 0.0005)
(0.000609994 0.0005 0.0005)
(0.0006599935 0.0005 0.0005)
(0.000709993 0.0005 0.0005)
(0.0007599925 0.0005 0.0005)
(0.000809992 0.0005 0.0005)
(0.0008599915 0.0005 0.0005)
(0.000909991 0.0005 0.0005)
(0.0009599905 0.0005 0.0005)
(0.00100999 0.0005 0.0005)
(0.0010599895 0.0005 0.0005)
(0.001109989 0.0005 0.0005)
(0.0011599885 0.0005 0.0005)
(0.001209988 0.0005 0.0005)
(0.0012599875 0.0005 0.0005)
(0.001309987 0.0005 0.0005)
(0.0013599865 0.0005 0.0005)
(0.001409986 0.0005 0.0005)
(0.0014599855 0.0005 0.0005)
(0.001509985 0.0005 0.0005)
(0.0015599845 0.0005 0.0005)
(0.001609984 0.0005 0.0005)
(0.0016599835 0.0005 0.0005)
(0.001709983 0.0005 0.0005)
(0.0017599825 0.0005 0.0005)
(0.001809982 0.0005 0.0005)
(0.0018599815 0.0005 0.0005)
(0.001909981 0.0005 0.0005)
(0.0019599805 0.0005 0.0005)
(0.00200998 0.0005 0.0005)
(0.0020599795 0.0005 0.0005)
(0.002109979 0.0005 0.0005)
(0.0021599785 0.0005 0.0005)
(0.002209978 0.0005 0.0005)
(0.0022599775 0.0005 0.0005)
(0.002309977 0.0005 0.0005)
(0.0023599765 0.0005 0.0005)
(0.002409976 0.0005 0.0005)
(0.0024599755 0.0005 0.0005)
(0.002509975 0.0005 0.0005)
(0.0025599745 0.0005 0.0005)
(0.002609974 0.0005 0.0005)
(0.0026599735 0.0005 0.0005)
(0.002709973 0.0005 0.0005)
(0.0027599725 0.0005 0.0005)
(0.002809972 0.0005 0.0005)
(0.0028599715 0.0005 0.0005)
(0.002909971 0.0005 0.0005)
(0.0029599705 0.0005 0.0005)
(0.00300997 0.0005 0.0005)
(0.0030599695 0.0005 0.0005)
(0.003109969 0.0005 0.0005)
(0.0031599685 0.0005 0.0005)
(0.003209968 0.0005 0.0005)
(0.0032599675 0.0005 0.0005)
(0.003309967 0.0005 0.0005)
(0.0033599665 0.0005 0.0005)
(0.003409966 0.0005 0.0005)
(0.0034599655 0.0005 0.0005)
(0.003509965 0.0005 0.0005)
(0.0035599645 0.0005 0.0005)
(0.003609964 0.0005 0.0005)
(0.0036599635 0.0005 0.0005)
(0.003709963 0.0005 0.0005)
(0.0037599625 0.0005 0.0005)
(0.003809962 0.0005 0.0005)
(0.0038599615 0.0005 0.0005)
(0.003909961 0.0005 0.0005)
(0.0039599605 0.0005 0.0005)
(0.00400996 0.0005 0.0005)
(0.0040599595 0.0005 0.0005)
(0.004109959 0.0005 0.0005)
(0.0041599585 0.0005 0.0005)
(0.004209958 0.0005 0.0005)
(0.0042599575 0.0005 0.0005)
(0.004309957 0.0005 0.0005)
(0.0043599565 0.0005 0.0005)
(0.004409956 0.0005 0.0005)
(0.0044599555 0.0005 0.0005)
(0.004509955 0.0005 0.0005)
(0.0045599545 0.0005 0.0005)
(0.004609954 0.0005 0.0005)
(0.0046599535 0.0005 0.0005)
(0.004709953 0.0005 0.0005)
(0.0047599525 0.0005 0.0005)
(0.004809952 0.0005 0.0005)
(0.0048599515 0.0005 0.0005)
(0.004909951 0.0005 0.0005)
(0.0049599505 0.0005 0.0005)
(0.00500995 0.0005 0.0005)
(0.0050599495 0.0005 0.0005)
(0.005109949 0.0005 0.0005)
(0.0051599485 0.0005 0.0005)
(0.005209948 0.0005 0.0005)
(0.0052599475 0.0005 0.0005)
(0.005309947 0.0005 0.0005)
(0.0053599465 0.0005 0.0005)
(0.005409946 0.0005 0.0005)
(0.0054599455 0.0005 0.0005)
(0.005509945 0.0005 0.0005)
(0.0055599445 0.0005 0.0005)
(0.005609944 0.0005 0.0005)
(0.0056599435 0.0005 0.0005)
(0.005709943 0.0005 0.0005)
(0.0057599425 0.0005 0.0005)
(0.005809942 0.0005 0.0005)
(0.0058599415 0.0005 0.0005)
(0.005909941 0.0005 0.0005)
(0.0059599405 0.0005 0.0005)
(0.00600994 0.0005 0.0005)
(0.0060599395 0.0005 0.0005)
(0.006109939 0.0005 0.0005)
(0.0061599385 0.0005 0.0005)
(0.006209938 0.0005 0.0005)
(0.0062599375 0.0005 0.0005)
(0.006309937 0.0005 0.0005)
(0.0063599365 0.0005 0.0005)
(0.006409936 0.0005 0.0005)
(0.0064599355 0.0005 0.0005)
(0.006509935 0.0005 0.0005)
(0.0065599345 0.0005 0.0005)
(0.006609934 0.0005 0.0005)
(0.0066599335 0.0005 0.0005)
(0.006709933 0.0005 0.0005)
(0.0067599325 0.0005 0.0005)
(0.006809932 0.0005 0.0005)
(0.0068599315 0.0005 0.0005)
(0.006909931 0.0005 0.0005)
(0.0069599305 0.0005 0.0005)
(0.00700993 0.0005 0.0005)
(0.0070599295 0.0005 0.0005)
(0.007109929 0.0005 0.0005)
(0.0071599285 0.0005 0.0005)
(0.007209928 0.0005 0.0005)
(0.0072599275 0.0005 0.0005)
(0.007309927 0.0005 0.0005)
(0.0073599265 0.0005 0.0005)
(0.007409926 0.0005 0.0005)
(0.0074599255 0.0005 0.0005)
(0.007509925 0.0005 0.0005)
(0.0075599245 0.0005 0.0005)
(0.007609924 0.0005 0.0005)
(0.0076599235 0.0005 0.0005)
(0.007709923 0.0005 0.0005)
(0.0077599225 0.0005 0.0005)
(0.007809922 0.0005 0.0005)
(0.0078599215 0.0005 0.0005)
(0.007909921 0.0005 0.0005)
(0.0079599205 0.0005 0.0005)
(0.00800992 0.0005 0.0005)
(0.0080599195 0.0005 0.0005)
(0.008109919 0.0005 0.0005)
(0.0081599185 0.0005 0.0005)
(0.008209918 0.0005 0.0005)
(0.0082599175 0.0005 0.0005)
(0.008309917 0.0005 0.0005)
(0.0083599165 0.0005 0.0005)
(0.008409916 0.0005 0.0005)
(0.0084599155 0.0005 0.0005)
(0.008509915 0.0005 0.0005)
(0.0085599145 0.0005 0.0005)
(0.008609914 0.0005 0.0005)
(0.0086599135 0.0005 0.0005)
(0.008709913 0.0005 0.0005)
(0.0087599125 0.0005 0.0005)
(0.008809912 0.0005 0.0005)
(0.0088599115 0.0005 0.0005)
(0.008909911 0.0005 0.0005)
(0.0089599105 0.0005 0.0005)
(0.00900991 0.0005 0.0005)
(0.0090599095 0.0005 0.0005)
(0.009109909 0.0005 0.0005)
(0.0091599085 0.0005 0.0005)
(0.009209908 0.0005 0.0005)
(0.0092599075 0.0005 0.0005)
(0.009309907 0.0005 0.0005)
(0.0093599065 0.0005 0.0005)
(0.009409906 0.0005 0.0005)
(0.0094599055 0.0005 0.0005)
(0.009509905 0.0005 0.0005)
(0.0095599045 0.0005 0.0005)
(0.009609904 0.0005 0.0005)
(0.0096599035 0.0005 0.0005)
(0.009709903 0.0005 0.0005)
(0.0097599025 0.0005 0.0005)
(0.009809902 0.0005 0.0005)
(0.0098599015 0.0005 0.0005)
(0.009909901 0.0005 0.0005)
(0.0099599005 0.0005 0.0005)
(0.0100099 0.0005 0.0005)
(0.0100598995 0.0005 0.0005)
(0.010109899 0.0005 0.0005)
(0.0101598985 0.0005 0.0005)
(0.010209898 0.0005 0.0005)
(0.0102598975 0.0005 0.0005)
(0.010309897 0.0005 0.0005)
(0.0103598965 0.0005 0.0005)
(0.010409896 0.0005 0.0005)
(0.0104598955 0.0005 0.0005)
(0.010509895 0.0005 0.0005)
(0.0105598945 0.0005 0.0005)
(0.010609894 0.0005 0.0005)
(0.0106598935 0.0005 0.0005)
(0.010709893 0.0005 0.0005)
(0.0107598925 0.0005 0.0005)
(0.010809892 0.0005 0.0005)
(0.0108598915 0.0005 0.0005)
(0.010909891 0.0005 0.0005)
(0.0109598905 0.0005 0.0005)
(0.01100989 0.0005 0.0005)
(0.0110598895 0.0005 0.0005)
(0.011109889 0.0005 0.0005)
(0.0111598885 0.0005 0.0005)
(0.011209888 0.0005 0.0005)
(0.0112598875 0.0005 0.0005)
(0.011309887 0.0005 0.0005)
(0.0113598865 0.0005 0.0005)
(0.011409886 0.0005 0.0005)
(0.0114598855 0.0005 0.0005)
(0.011509885 0.0005 0.0005)
(0.0115598845 0.0005 0.0005)
(0.011609884 0.0005 0.0005)
(0.0116598835 0.0005 0.0005)
(0.011709883 0.0005 0.0005)
(0.0117598825 0.0005 0.0005)
(0.011809882 0.0005 0.0005)
(0.0118598815 0.0005 0.0005)
(0.011909881 0.0005 0.0005)
(0.0119598805 0.0005 0.0005)
(0.01200988 0.0005 0.0005)
(0.0120598795 0.0005 0.0005)
(0.012109879 0.0005 0.0005)
(0.0121598785 0.0005 0.0005)
(0.012209878 0.0005 0.0005)
(0.0122598775 0.0005 0.0005)
(0.012309877 0.0005 0.0005)
(0.0123598765 0.0005 0.0005)
(0.012409876 0.0005 0.0005)
(0.0124598755 0.0005 0.0005)
(0.012509875 0.0005 0.0005)
(0.0125598745 0.0005 0.0005)
(0.012609874 0.0005 0.0005)
(0.0126598735 0.0005 0.0005)
(0.012709873 0.0005 0.0005)
(0.0127598725 0.0005 0.0005)
(0.012809872 0.0005 0.0005)
(0.0128598715 0.0005 0.0005)
(0.012909871 0.0005 0.0005)
(0.0129598705 0.0005 0.0005)
(0.01300987 0.0005 0.0005)
(0.0130598695 0.0005 0.0005)
(0.013109869 0.0005 0.0005)
(0.0131598685 0.0005 0.0005)
(0.013209868 0.0005 0.0005)
(0.0132598675 0.0005 0.0005)
(0.013309867 0.0005 0.0005)
(0.0133598665 0.0005 0.0005)
(0.013409866 0.0005 0.0005)
(0.0134598655 0.0005 0.0005)
(0.013509865 0.0005 0.0005)
(0.0135598645 0.0005 0.0005)
(0.013609864 0.0005 0.0005)
(0.0136598635 0.0005 0.0005)
(0.013709863 0.0005 0.0005)
(0.0137598625 0.0005 0.0005)
(0.013809862 0.0005 0.0005)
(0.0138598615 0.0005 0.0005)
(0.013909861 0.0005 0.0005)
(0.0139598605 0.0005 0.0005)
(0.01400986 0.0005 0.0005)
(0.0140598595 0.0005 0.0005)
(0.014109859 0.0005 0.0005)
(0.0141598585 0.0005 0.0005)
(0.014209858 0.0005 0.0005)
(0.0142598575 0.0005 0.0005)
(0.014309857 0.0005 0.0005)
(0.0143598565 0.0005 0.0005)
(0.014409856 0.0005 0.0005)
(0.0144598555 0.0005 0.0005)
(0.014509855 0.0005 0.0005)
(0.0145598545 0.0005 0.0005)
(0.014609854 0.0005 0.0005)
(0.0146598535 0.0005 0.0005)
(0.014709853 0.0005 0.0005)
(0.0147598525 0.0005 0.0005)
(0.014809852 0.0005 0.0005)
(0.0148598515 0.0005 0.0005)
(0.014909851 0.0005 0.0005)
(0.0149598505 0.0005 0.0005)
(0.01500985 0.0005 0.0005)
(0.0150598495 0.0005 0.0005)
(0.015109849 0.0005 0.0005)
(0.0151598485 0.0005 0.0005)
(0.015209848 0.0005 0.0005)
(0.0152598475 0.0005 0.0005)
(0.015309847 0.0005 0.0005)
(0.0153598465 0.0005 0.0005)
(0.015409846 0.0005 0.0005)
(0.0154598455 0.0005 0.0005)
(0.015509845 0.0005 0.0005)
(0.0155598445 0.0005 0.0005)
(0.015609844 0.0005 0.0005)
(0.0156598435 0.0005 0.0005)
(0.015709843 0.0005 0.0005)
(0.0157598425 0.0005 0.0005)
(0.015809842 0.0005 0.0005)
(0.0158598415 0.0005 0.0005)
(0.015909841 0.0005 0.0005)
(0.0159598405 0.0005 0.0005)
(0.01600984 0.0005 0.0005)
(0.0160598395 0.0005 0.0005)
(0.016109839 0.0005 0.0005)
(0.0161598385 0.0005 0.0005)
(0.016209838 0.0005 0.0005)
(0.0162598375 0.0005 0.0005)
(0.016309837 0.0005 0.0005)
(0.0163598365 0.0005 0.0005)
(0.016409836 0.0005 0.0005)
(0.0164598355 0.0005 0.0005)
(0.016509835 0.0005 0.0005)
(0.0165598345 0.0005 0.0005)
(0.016609834 0.0005 0.0005)
(0.0166598335 0.0005 0.0005)
(0.016709833 0.0005 0.0005)
(0.0167598325 0.0005 0.0005)
(0.016809832 0.0005 0.0005)
(0.0168598315 0.0005 0.0005)
(0.016909831 0.0005 0.0005)
(0.0169598305 0.0005 0.0005)
(0.01700983 0.0005 0.0005)
(0.0170598295 0.0005 0.0005)
(0.017109829 0.0005 0.0005)
(0.0171598285 0.0005 0.0005)
(0.017209828 0.0005 0.0005)
(0.0172598275 0.0005 0.0005)
(0.017309827 0.0005 0.0005)
(0.0173598265 0.0005 0.0005)
(0.017409826 0.0005 0.0005)
(0.0174598255 0.0005 0.0005)
(0.017509825 0.0005 0.0005)
(0.0175598245 0.0005 0.0005)
(0.017609824 0.0005 0.0005)
(0.0176598235 0.0005 0.0005)
(0.017709823 0.0005 0.0005)
(0.0177598225 0.0005 0.0005)
(0.017809822 0.0005 0.0005)
(0.0178598215 0.0005 0.0005)
(0.017909821 0.0005 0.0005)
(0.0179598205 0.0005 0.0005)
(0.01800982 0.0005 0.0005)
(0.0180598195 0.0005 0.0005)
(0.018109819 0.0005 0.0005)
(0.0181598185 0.0005 0.0005)
(0.018209818 0.0005 0.0005)
(0.0182598175 0.0005 0.0005)
(0.018309817 0.0005 0.0005)
(0.0183598165 0.0005 0.0005)
(0.018409816 0.0005 0.0005)
(0.0184598155 0.0005 0.0005)
(0.018509815 0.0005 0.0005)
(0.0185598145 0.0005 0.0005)
(0.018609814 0.0005 0.0005)
(0.0186598135 0.0005 0.0005)
(0.018709813 0.0005 0.0005)
(0.0187598125 0.0005 0.0005)
(0.018809812 0.0005 0.0005)
(0.0188598115 0.0005 0.0005)
(0.018909811 0.0005 0.0005)
(0.0189598105 0.0005 0.0005)
(0.01900981 0.0005 0.0005)
(0.0190598095 0.0005 0.0005)
(0.019109809 0.0005 0.0005)
(0.0191598085 0.0005 0.0005)
(0.019209808 0.0005 0.0005)
(0.0192598075 0.0005 0.0005)
(0.019309807 0.0005 0.0005)
(0.0193598065 0.0005 0.0005)
(0.019409806 0.0005 0.0005)
(0.0194598055 0.0005 0.0005)
(0.019509805 0.0005 0.0005)
(0.0195598045 0.0005 0.0005)
(0.019609804 0.0005 0.0005)
(0.0196598035 0.0005 0.0005)
(0.019709803 0.0005 0.0005)
(0.0197598025 0.0005 0.0005)
(0.019809802 0.0005 0.0005)
(0.0198598015 0.0005 0.0005)
(0.019909801 0.0005 0.0005)
(0.0199598005 0.0005 0.0005)
(0.0200098 0.0005 0.0005)
(0.0200597995 0.0005 0.0005)
(0.020109799 0.0005 0.0005)
(0.0201597985 0.0005 0.0005)
(0.020209798 0.0005 0.0005)
(0.0202597975 0.0005 0.0005)
(0.020309797 0.0005 0.0005)
(0.0203597965 0.0005 0.0005)
(0.020409796 0.0005 0.0005)
(0.0204597955 0.0005 0.0005)
(0.020509795 0.0005 0.0005)
(0.0205597945 0.0005 0.0005)
(0.020609794 0.0005 0.0005)
(0.0206597935 0.0005 0.0005)
(0.020709793 0.0005 0.0005)
(0.0207597925 0.0005 0.0005)
(0.020809792 0.0005 0.0005)
(0.0208597915 0.0005 0.0005)
(0.020909791 0.0005 0.0005)
(0.0209597905 0.0005 0.0005)
(0.02100979 0.0005 0.0005)
(0.0210597895 0.0005 0.0005)
(0.021109789 0.0005 0.0005)
(0.0211597885 0.0005 0.0005)
(0.021209788 0.0005 0.0005)
(0.0212597875 0.0005 0.0005)
(0.021309787 0.0005 0.0005)
(0.0213597865 0.0005 0.0005)
(0.021409786 0.0005 0.0005)
(0.0214597855 0.0005 0.0005)
(0.021509785 0.0005 0.0005)
(0.0215597845 0.0005 0.0005)
(0.021609784 0.0005 0.0005)
(0.0216597835 0.0005 0.0005)
(0.021709783 0.0005 0.0005)
(0.0217597825 0.0005 0.0005)
(0.021809782 0.0005 0.0005)
(0.0218597815 0.0005 0.0005)
(0.021909781 0.0005 0.0005)
(0.0219597805 0.0005 0.0005)
(0.02200978 0.0005 0.0005)
(0.0220597795 0.0005 0.0005)
(0.022109779 0.0005 0.0005)
(0.0221597785 0.0005 0.0005)
(0.022209778 0.0005 0.0005)
(0.0222597775 0.0005 0.0005)
(0.022309777 0.0005 0.0005)
(0.0223597765 0.0005 0.0005)
(0.022409776 0.0005 0.0005)
(0.0224597755 0.0005 0.0005)
(0.022509775 0.0005 0.0005)
(0.0225597745 0.0005 0.0005)
(0.022609774 0.0005 0.0005)
(0.0226597735 0.0005 0.0005)
(0.022709773 0.0005 0.0005)
(0.0227597725 0.0005 0.0005)
(0.022809772 0.0005 0.0005)
(0.0228597715 0.0005 0.0005)
(0.022909771 0.0005 0.0005)
(0.0229597705 0.0005 0.0005)
(0.02300977 0.0005 0.0005)
(0.0230597695 0.0005 0.0005)
(0.023109769 0.0005 0.0005)
(0.0231597685 0.0005 0.0005)
(0.023209768 0.0005 0.0005)
(0.0232597675 0.0005 0.0005)
(0.023309767 0.0005 0.0005)
(0.0233597665 0.0005 0.0005)
(0.023409766 0.0005 0.0005)
(0.0234597655 0.0005 0.0005)
(0.023509765 0.0005 0.0005)
(0.0235597645 0.0005 0.0005)
(0.023609764 0.0005 0.0005)
(0.0236597635 0.0005 0.0005)
(0.023709763 0.0005 0.0005)
(0.0237597625 0.0005 0.0005)
(0.023809762 0.0005 0.0005)
(0.0238597615 0.0005 0.0005)
(0.023909761 0.0005 0.0005)
(0.0239597605 0.0005 0.0005)
(0.02400976 0.0005 0.0005)
(0.0240597595 0.0005 0.0005)
(0.024109759 0.0005 0.0005)
(0.0241597585 0.0005 0.0005)
(0.024209758 0.0005 0.0005)
(0.0242597575 0.0005 0.0005)
(0.024309757 0.0005 0.0005)
(0.0243597565 0.0005 0.0005)
(0.024409756 0.0005 0.0005)
(0.0244597555 0.0005 0.0005)
(0.024509755 0.0005 0.0005)
(0.0245597545 0.0005 0.0005)
(0.024609754 0.0005 0.0005)
(0.0246597535 0.0005 0.0005)
(0.024709753 0.0005 0.0005)
(0.0247597525 0.0005 0.0005)
(0.024809752 0.0005 0.0005)
(0.0248597515 0.0005 0.0005)
(0.024909751 0.0005 0.0005)
(0.0249597505 0.0005 0.0005)
(0.02500975 0.0005 0.0005)
(0.0250597495 0.0005 0.0005)
(0.025109749 0.0005 0.0005)
(0.0251597485 0.0005 0.0005)
(0.025209748 0.0005 0.0005)
(0.0252597475 0.0005 0.0005)
(0.025309747 0.0005 0.0005)
(0.0253597465 0.0005 0.0005)
(0.025409746 0.0005 0.0005)
(0.0254597455 0.0005 0.0005)
(0.025509745 0.0005 0.0005)
(0.0255597445 0.0005 0.0005)
(0.025609744 0.0005 0.0005)
(0.0256597435 0.0005 0.0005)
(0.025709743 0.0005 0.0005)
(0.0257597425 0.0005 0.0005)
(0.025809742 0.0005 0.0005)
(0.0258597415 0.0005 0.0005)
(0.025909741 0.0005 0.0005)
(0.0259597405 0.0005 0.0005)
(0.02600974 0.0005 0.0005)
(0.0260597395 0.0005 0.0005)
(0.026109739 0.0005 0.0005)
(0.0261597385 0.0005 0.0005)
(0.026209738 0.0005 0.0005)
(0.0262597375 0.0005 0.0005)
(0.026309737 0.0005 0.0005)
(0.0263597365 0.0005 0.0005)
(0.026409736 0.0005 0.0005)
(0.0264597355 0.0005 0.0005)
(0.026509735 0.0005 0.0005)
(0.0265597345 0.0005 0.0005)
(0.026609734 0.0005 0.0005)
(0.0266597335 0.0005 0.0005)
(0.026709733 0.0005 0.0005)
(0.0267597325 0.0005 0.0005)
(0.026809732 0.0005 0.0005)
(0.0268597315 0.0005 0.0005)
(0.026909731 0.0005 0.0005)
(0.0269597305 0.0005 0.0005)
(0.02700973 0.0005 0.0005)
(0.0270597295 0.0005 0.0005)
(0.027109729 0.0005 0.0005)
(0.0271597285 0.0005 0.0005)
(0.027209728 0.0005 0.0005)
(0.0272597275 0.0005 0.0005)
(0.027309727 0.0005 0.0005)
(0.0273597265 0.0005 0.0005)
(0.027409726 0.0005 0.0005)
(0.0274597255 0.0005 0.0005)
(0.027509725 0.0005 0.0005)
(0.0275597245 0.0005 0.0005)
(0.027609724 0.0005 0.0005)
(0.0276597235 0.0005 0.0005)
(0.027709723 0.0005 0.0005)
(0.0277597225 0.0005 0.0005)
(0.027809722 0.0005 0.0005)
(0.0278597215 0.0005 0.0005)
(0.027909721 0.0005 0.0005)
(0.0279597205 0.0005 0.0005)
(0.02800972 0.0005 0.0005)
(0.0280597195 0.0005 0.0005)
(0.028109719 0.0005 0.0005)
(0.0281597185 0.0005 0.0005)
(0.028209718 0.0005 0.0005)
(0.0282597175 0.0005 0.0005)
(0.028309717 0.0005 0.0005)
(0.0283597165 0.0005 0.0005)
(0.028409716 0.0005 0.0005)
(0.0284597155 0.0005 0.0005)
(0.028509715 0.0005 0.0005)
(0.0285597145 0.0005 0.0005)
(0.028609714 0.0005 0.0005)
(0.0286597135 0.0005 0.0005)
(0.028709713 0.0005 0.0005)
(0.0287597125 0.0005 0.0005)
(0.028809712 0.0005 0.0005)
(0.0288597115 0.0005 0.0005)
(0.028909711 0.0005 0.0005)
(0.0289597105 0.0005 0.0005)
(0.02900971 0.0005 0.0005)
(0.0290597095 0.0005 0.0005)
(0.029109709 0.0005 0.0005)
(0.0291597085 0.0005 0.0005)
(0.029209708 0.0005 0.0005)
(0.0292597075 0.0005 0.0005)
(0.029309707 0.0005 0.0005)
(0.0293597065 0.0005 0.0005)
(0.029409706 0.0005 0.0005)
(0.0294597055 0.0005 0.0005)
(0.029509705 0.0005 0.0005)
(0.0295597045 0.0005 0.0005)
(0.029609704 0.0005 0.0005)
(0.0296597035 0.0005 0.0005)
(0.029709703 0.0005 0.0005)
(0.0297597025 0.0005 0.0005)
(0.029809702 0.0005 0.0005)
(0.0298597015 0.0005 0.0005)
(0.029909701 0.0005 0.0005)
(0.0299597005 0.0005 0.0005)
(0.0300097 0.0005 0.0005)
(0.0300596995 0.0005 0.0005)
(0.030109699 0.0005 0.0005)
(0.0301596985 0.0005 0.0005)
(0.030209698 0.0005 0.0005)
(0.0302596975 0.0005 0.0005)
(0.030309697 0.0005 0.0005)
(0.0303596965 0.0005 0.0005)
(0.030409696 0.0005 0.0005)
(0.0304596955 0.0005 0.0005)
(0.030509695 0.0005 0.0005)
(0.0305596945 0.0005 0.0005)
(0.030609694 0.0005 0.0005)
(0.0306596935 0.0005 0.0005)
(0.030709693 0.0005 0.0005)
(0.0307596925 0.0005 0.0005)
(0.030809692 0.0005 0.0005)
(0.0308596915 0.0005 0.0005)
(0.030909691 0.0005 0.0005)
(0.0309596905 0.0005 0.0005)
(0.03100969 0.0005 0.0005)
(0.0310596895 0.0005 0.0005)
(0.031109689 0.0005 0.0005)
(0.0311596885 0.0005 0.0005)
(0.031209688 0.0005 0.0005)
(0.0312596875 0.0005 0.0005)
(0.031309687 0.0005 0.0005)
(0.0313596865 0.0005 0.0005)
(0.031409686 0.0005 0.0005)
(0.0314596855 0.0005 0.0005)
(0.031509685 0.0005 0.0005)
(0.0315596845 0.0005 0.0005)
(0.031609684 0.0005 0.0005)
(0.0316596835 0.0005 0.0005)
(0.031709683 0.0005 0.0005)
(0.0317596825 0.0005 0.0005)
(0.031809682 0.0005 0.0005)
(0.0318596815 0.0005 0.0005)
(0.031909681 0.0005 0.0005)
(0.0319596805 0.0005 0.0005)
(0.03200968 0.0005 0.0005)
(0.0320596795 0.0005 0.0005)
(0.032109679 0.0005 0.0005)
(0.0321596785 0.0005 0.0005)
(0.032209678 0.0005 0.0005)
(0.0322596775 0.0005 0.0005)
(0.032309677 0.0005 0.0005)
(0.0323596765 0.0005 0.0005)
(0.032409676 0.0005 0.0005)
(0.0324596755 0.0005 0.0005)
(0.032509675 0.0005 0.0005)
(0.0325596745 0.0005 0.0005)
(0.032609674 0.0005 0.0005)
(0.0326596735 0.0005 0.0005)
(0.032709673 0.0005 0.0005)
(0.0327596725 0.0005 0.0005)
(0.032809672 0.0005 0.0005)
(0.0328596715 0.0005 0.0005)
(0.032909671 0.0005 0.0005)
(0.0329596705 0.0005 0.0005)
(0.03300967 0.0005 0.0005)
(0.0330596695 0.0005 0.0005)
(0.033109669 0.0005 0.0005)
(0.0331596685 0.0005 0.0005)
(0.033209668 0.0005 0.0005)
(0.0332596675 0.0005 0.0005)
(0.033309667 0.0005 0.0005)
(0.0333596665 0.0005 0.0005)
(0.033409666 0.0005 0.0005)
(0.0334596655 0.0005 0.0005)
(0.033509665 0.0005 0.0005)
(0.0335596645 0.0005 0.0005)
(0.033609664 0.0005 0.0005)
(0.0336596635 0.0005 0.0005)
(0.033709663 0.0005 0.0005)
(0.0337596625 0.0005 0.0005)
(0.033809662 0.0005 0.0005)
(0.0338596615 0.0005 0.0005)
(0.033909661 0.0005 0.0005)
(0.0339596605 0.0005 0.0005)
(0.03400966 0.0005 0.0005)
(0.0340596595 0.0005 0.0005)
(0.034109659 0.0005 0.0005)
(0.0341596585 0.0005 0.0005)
(0.034209658 0.0005 0.0005)
(0.0342596575 0.0005 0.0005)
(0.034309657 0.0005 0.0005)
(0.0343596565 0.0005 0.0005)
(0.034409656 0.0005 0.0005)
(0.0344596555 0.0005 0.0005)
(0.034509655 0.0005 0.0005)
(0.0345596545 0.0005 0.0005)
(0.034609654 0.0005 0.0005)
(0.0346596535 0.0005 0.0005)
(0.034709653 0.0005 0.0005)
(0.0347596525 0.0005 0.0005)
(0.034809652 0.0005 0.0005)
(0.0348596515 0.0005 0.0005)
(0.034909651 0.0005 0.0005)
(0.0349596505 0.0005 0.0005)
(0.03500965 0.0005 0.0005)
(0.0350596495 0.0005 0.0005)
(0.035109649 0.0005 0.0005)
(0.0351596485 0.0005 0.0005)
(0.035209648 0.0005 0.0005)
(0.0352596475 0.0005 0.0005)
(0.035309647 0.0005 0.0005)
(0.0353596465 0.0005 0.0005)
(0.035409646 0.0005 0.0005)
(0.0354596455 0.0005 0.0005)
(0.035509645 0.0005 0.0005)
(0.0355596445 0.0005 0.0005)
(0.035609644 0.0005 0.0005)
(0.0356596435 0.0005 0.0005)
(0.035709643 0.0005 0.0005)
(0.0357596425 0.0005 0.0005)
(0.035809642 0.0005 0.0005)
(0.0358596415 0.0005 0.0005)
(0.035909641 0.0005 0.0005)
(0.0359596405 0.0005 0.0005)
(0.03600964 0.0005 0.0005)
(0.0360596395 0.0005 0.0005)
(0.036109639 0.0005 0.0005)
(0.0361596385 0.0005 0.0005)
(0.036209638 0.0005 0.0005)
(0.0362596375 0.0005 0.0005)
(0.036309637 0.0005 0.0005)
(0.0363596365 0.0005 0.0005)
(0.036409636 0.0005 0.0005)
(0.0364596355 0.0005 0.0005)
(0.036509635 0.0005 0.0005)
(0.0365596345 0.0005 0.0005)
(0.036609634 0.0005 0.0005)
(0.0366596335 0.0005 0.0005)
(0.036709633 0.0005 0.0005)
(0.0367596325 0.0005 0.0005)
(0.036809632 0.0005 0.0005)
(0.0368596315 0.0005 0.0005)
(0.036909631 0.0005 0.0005)
(0.0369596305 0.0005 0.0005)
(0.03700963 0.0005 0.0005)
(0.0370596295 0.0005 0.0005)
(0.037109629 0.0005 0.0005)
(0.0371596285 0.0005 0.0005)
(0.037209628 0.0005 0.0005)
(0.0372596275 0.0005 0.0005)
(0.037309627 0.0005 0.0005)
(0.0373596265 0.0005 0.0005)
(0.037409626 0.0005 0.0005)
(0.0374596255 0.0005 0.0005)
(0.037509625 0.0005 0.0005)
(0.0375596245 0.0005 0.0005)
(0.037609624 0.0005 0.0005)
(0.0376596235 0.0005 0.0005)
(0.037709623 0.0005 0.0005)
(0.0377596225 0.0005 0.0005)
(0.037809622 0.0005 0.0005)
(0.0378596215 0.0005 0.0005)
(0.037909621 0.0005 0.0005)
(0.0379596205 0.0005 0.0005)
(0.03800962 0.0005 0.0005)
(0.0380596195 0.0005 0.0005)
(0.038109619 0.0005 0.0005)
(0.0381596185 0.0005 0.0005)
(0.038209618 0.0005 0.0005)
(0.0382596175 0.0005 0.0005)
(0.038309617 0.0005 0.0005)
(0.0383596165 0.0005 0.0005)
(0.038409616 0.0005 0.0005)
(0.0384596155 0.0005 0.0005)
(0.038509615 0.0005 0.0005)
(0.0385596145 0.0005 0.0005)
(0.038609614 0.0005 0.0005)
(0.0386596135 0.0005 0.0005)
(0.038709613 0.0005 0.0005)
(0.0387596125 0.0005 0.0005)
(0.038809612 0.0005 0.0005)
(0.0388596115 0.0005 0.0005)
(0.038909611 0.0005 0.0005)
(0.0389596105 0.0005 0.0005)
(0.03900961 0.0005 0.0005)
(0.0390596095 0.0005 0.0005)
(0.039109609 0.0005 0.0005)
(0.0391596085 0.0005 0.0005)
(0.039209608 0.0005 0.0005)
(0.0392596075 0.0005 0.0005)
(0.039309607 0.0005 0.0005)
(0.0393596065 0.0005 0.0005)
(0.039409606 0.0005 0.0005)
(0.0394596055 0.0005 0.0005)
(0.039509605 0.0005 0.0005)
(0.0395596045 0.0005 0.0005)
(0.039609604 0.0005 0.0005)
(0.0396596035 0.0005 0.0005)
(0.039709603 0.0005 0.0005)
(0.0397596025 0.0005 0.0005)
(0.039809602 0.0005 0.0005)
(0.0398596015 0.0005 0.0005)
(0.039909601 0.0005 0.0005)
(0.0399596005 0.0005 0.0005)
(0.0400096 0.0005 0.0005)
(0.0400595995 0.0005 0.0005)
(0.040109599 0.0005 0.0005)
(0.0401595985 0.0005 0.0005)
(0.040209598 0.0005 0.0005)
(0.0402595975 0.0005 0.0005)
(0.040309597 0.0005 0.0005)
(0.0403595965 0.0005 0.0005)
(0.040409596 0.0005 0.0005)
(0.0404595955 0.0005 0.0005)
(0.040509595 0.0005 0.0005)
(0.0405595945 0.0005 0.0005)
(0.040609594 0.0005 0.0005)
(0.0406595935 0.0005 0.0005)
(0.040709593 0.0005 0.0005)
(0.0407595925 0.0005 0.0005)
(0.040809592 0.0005 0.0005)
(0.0408595915 0.0005 0.0005)
(0.040909591 0.0005 0.0005)
(0.0409595905 0.0005 0.0005)
(0.04100959 0.0005 0.0005)
(0.0410595895 0.0005 0.0005)
(0.041109589 0.0005 0.0005)
(0.0411595885 0.0005 0.0005)
(0.041209588 0.0005 0.0005)
(0.0412595875 0.0005 0.0005)
(0.041309587 0.0005 0.0005)
(0.0413595865 0.0005 0.0005)
(0.041409586 0.0005 0.0005)
(0.0414595855 0.0005 0.0005)
(0.041509585 0.0005 0.0005)
(0.0415595845 0.0005 0.0005)
(0.041609584 0.0005 0.0005)
(0.0416595835 0.0005 0.0005)
(0.041709583 0.0005 0.0005)
(0.0417595825 0.0005 0.0005)
(0.041809582 0.0005 0.0005)
(0.0418595815 0.0005 0.0005)
(0.041909581 0.0005 0.0005)
(0.0419595805 0.0005 0.0005)
(0.04200958 0.0005 0.0005)
(0.0420595795 0.0005 0.0005)
(0.042109579 0.0005 0.0005)
(0.0421595785 0.0005 0.0005)
(0.042209578 0.0005 0.0005)
(0.0422595775 0.0005 0.0005)
(0.042309577 0.0005 0.0005)
(0.0423595765 0.0005 0.0005)
(0.042409576 0.0005 0.0005)
(0.0424595755 0.0005 0.0005)
(0.042509575 0.0005 0.0005)
(0.0425595745 0.0005 0.0005)
(0.042609574 0.0005 0.0005)
(0.0426595735 0.0005 0.0005)
(0.042709573 0.0005 0.0005)
(0.0427595725 0.0005 0.0005)
(0.042809572 0.0005 0.0005)
(0.0428595715 0.0005 0.0005)
(0.042909571 0.0005 0.0005)
(0.0429595705 0.0005 0.0005)
(0.04300957 0.0005 0.0005)
(0.0430595695 0.0005 0.0005)
(0.043109569 0.0005 0.0005)
(0.0431595685 0.0005 0.0005)
(0.043209568 0.0005 0.0005)
(0.0432595675 0.0005 0.0005)
(0.043309567 0.0005 0.0005)
(0.0433595665 0.0005 0.0005)
(0.043409566 0.0005 0.0005)
(0.0434595655 0.0005 0.0005)
(0.043509565 0.0005 0.0005)
(0.0435595645 0.0005 0.0005)
(0.043609564 0.0005 0.0005)
(0.0436595635 0.0005 0.0005)
(0.043709563 0.0005 0.0005)
(0.0437595625 0.0005 0.0005)
(0.043809562 0.0005 0.0005)
(0.0438595615 0.0005 0.0005)
(0.043909561 0.0005 0.0005)
(0.0439595605 0.0005 0.0005)
(0.04400956 0.0005 0.0005)
(0.0440595595 0.0005 0.0005)
(0.044109559 0.0005 0.0005)
(0.0441595585 0.0005 0.0005)
(0.044209558 0.0005 0.0005)
(0.0442595575 0.0005 0.0005)
(0.044309557 0.0005 0.0005)
(0.0443595565 0.0005 0.0005)
(0.044409556 0.0005 0.0005)
(0.0444595555 0.0005 0.0005)
(0.044509555 0.0005 0.0005)
(0.0445595545 0.0005 0.0005)
(0.044609554 0.0005 0.0005)
(0.0446595535 0.0005 0.0005)
(0.044709553 0.0005 0.0005)
(0.0447595525 0.0005 0.0005)
(0.044809552 0.0005 0.0005)
(0.0448595515 0.0005 0.0005)
(0.044909551 0.0005 0.0005)
(0.0449595505 0.0005 0.0005)
(0.04500955 0.0005 0.0005)
(0.0450595495 0.0005 0.0005)
(0.045109549 0.0005 0.0005)
(0.0451595485 0.0005 0.0005)
(0.045209548 0.0005 0.0005)
(0.0452595475 0.0005 0.0005)
(0.045309547 0.0005 0.0005)
(0.0453595465 0.0005 0.0005)
(0.045409546 0.0005 0.0005)
(0.0454595455 0.0005 0.0005)
(0.045509545 0.0005 0.0005)
(0.0455595445 0.0005 0.0005)
(0.045609544 0.0005 0.0005)
(0.0456595435 0.0005 0.0005)
(0.045709543 0.0005 0.0005)
(0.0457595425 0.0005 0.0005)
(0.045809542 0.0005 0.0005)
(0.0458595415 0.0005 0.0005)
(0.045909541 0.0005 0.0005)
(0.0459595405 0.0005 0.0005)
(0.04600954 0.0005 0.0005)
(0.0460595395 0.0005 0.0005)
(0.046109539 0.0005 0.0005)
(0.0461595385 0.0005 0.0005)
(0.046209538 0.0005 0.0005)
(0.0462595375 0.0005 0.0005)
(0.046309537 0.0005 0.0005)
(0.0463595365 0.0005 0.0005)
(0.046409536 0.0005 0.0005)
(0.0464595355 0.0005 0.0005)
(0.046509535 0.0005 0.0005)
(0.0465595345 0.0005 0.0005)
(0.046609534 0.0005 0.0005)
(0.0466595335 0.0005 0.0005)
(0.046709533 0.0005 0.0005)
(0.0467595325 0.0005 0.0005)
(0.046809532 0.0005 0.0005)
(0.0468595315 0.0005 0.0005)
(0.046909531 0.0005 0.0005)
(0.0469595305 0.0005 0.0005)
(0.04700953 0.0005 0.0005)
(0.0470595295 0.0005 0.0005)
(0.047109529 0.0005 0.0005)
(0.0471595285 0.0005 0.0005)
(0.047209528 0.0005 0.0005)
(0.0472595275 0.0005 0.0005)
(0.047309527 0.0005 0.0005)
(0.0473595265 0.0005 0.0005)
(0.047409526 0.0005 0.0005)
(0.0474595255 0.0005 0.0005)
(0.047509525 0.0005 0.0005)
(0.0475595245 0.0005 0.0005)
(0.047609524 0.0005 0.0005)
(0.0476595235 0.0005 0.0005)
(0.047709523 0.0005 0.0005)
(0.0477595225 0.0005 0.0005)
(0.047809522 0.0005 0.0005)
(0.0478595215 0.0005 0.0005)
(0.047909521 0.0005 0.0005)
(0.0479595205 0.0005 0.0005)
(0.04800952 0.0005 0.0005)
(0.0480595195 0.0005 0.0005)
(0.048109519 0.0005 0.0005)
(0.0481595185 0.0005 0.0005)
(0.048209518 0.0005 0.0005)
(0.0482595175 0.0005 0.0005)
(0.048309517 0.0005 0.0005)
(0.0483595165 0.0005 0.0005)
(0.048409516 0.0005 0.0005)
(0.0484595155 0.0005 0.0005)
(0.048509515 0.0005 0.0005)
(0.0485595145 0.0005 0.0005)
(0.048609514 0.0005 0.0005)
(0.0486595135 0.0005 0.0005)
(0.048709513 0.0005 0.0005)
(0.0487595125 0.0005 0.0005)
(0.048809512 0.0005 0.0005)
(0.0488595115 0.0005 0.0005)
(0.048909511 0.0005 0.0005)
(0.0489595105 0.0005 0.0005)
(0.04900951 0.0005 0.0005)
(0.0490595095 0.0005 0.0005)
(0.049109509 0.0005 0.0005)
(0.0491595085 0.0005 0.0005)
(0.049209508 0.0005 0.0005)
(0.0492595075 0.0005 0.0005)
(0.049309507 0.0005 0.0005)
(0.0493595065 0.0005 0.0005)
(0.049409506 0.0005 0.0005)
(0.0494595055 0.0005 0.0005)
(0.049509505 0.0005 0.0005)
(0.0495595045 0.0005 0.0005)
(0.049609504 0.0005 0.0005)
(0.0496595035 0.0005 0.0005)
(0.049709503 0.0005 0.0005)
(0.0497595025 0.0005 0.0005)
(0.049809502 0.0005 0.0005)
(0.0498595015 0.0005 0.0005)
(0.049909501 0.0005 0.0005)
(0.0499595005 0.0005 0.0005)
(0.0500095 0.0005 0.0005)
(0.0500594995 0.0005 0.0005)
(0.050109499 0.0005 0.0005)
(0.0501594985 0.0005 0.0005)
(0.050209498 0.0005 0.0005)
(0.0502594975 0.0005 0.0005)
(0.050309497 0.0005 0.0005)
(0.0503594965 0.0005 0.0005)
(0.050409496 0.0005 0.0005)
(0.0504594955 0.0005 0.0005)
(0.050509495 0.0005 0.0005)
(0.0505594945 0.0005 0.0005)
(0.050609494 0.0005 0.0005)
(0.0506594935 0.0005 0.0005)
(0.050709493 0.0005 0.0005)
(0.0507594925 0.0005 0.0005)
(0.050809492 0.0005 0.0005)
(0.0508594915 0.0005 0.0005)
(0.050909491 0.0005 0.0005)
(0.0509594905 0.0005 0.0005)
(0.05100949 0.0005 0.0005)
(0.0510594895 0.0005 0.0005)
(0.051109489 0.0005 0.0005)
(0.0511594885 0.0005 0.0005)
(0.051209488 0.0005 0.0005)
(0.0512594875 0.0005 0.0005)
(0.051309487 0.0005 0.0005)
(0.0513594865 0.0005 0.0005)
(0.051409486 0.0005 0.0005)
(0.0514594855 0.0005 0.0005)
(0.051509485 0.0005 0.0005)
(0.0515594845 0.0005 0.0005)
(0.051609484 0.0005 0.0005)